#======================================================================

# CRYSTAL DATA

#----------------------------------------------------------------------

data_VESTA_phase_1


_pd_phase_name                         'Al2 O3                                '
_cell_length_a                         4.75523
_cell_length_b                         4.75523
_cell_length_c                         12.96226
_cell_angle_alpha                      90
_cell_angle_beta                       90
_cell_angle_gamma                      120
_symmetry_space_group_name_H-M         'P 1'
_symmetry_Int_Tables_number            1

loop_
_symmetry_equiv_pos_as_xyz
   'x, y, z'

loop_
   _atom_site_label
   _atom_site_occupancy
   _atom_site_fract_x
   _atom_site_fract_y
   _atom_site_fract_z
   _atom_site_adp_type
   _atom_site_B_iso_or_equiv
   _atom_site_type_symbol
   Al1        1.0    -0.000000      0.000000      0.351916     Biso  1.000000 Al
   Al2        1.0    -0.000000      0.000000      0.648084     Biso  1.000000 Al
   Al3        1.0    -0.000000      0.000000      0.148084     Biso  1.000000 Al
   Al4        1.0    -0.000000      0.000000      0.851916     Biso  1.000000 Al
   Al5        1.0     0.666667      0.333333      0.685249     Biso  1.000000 Al
   Al6        1.0     0.666667      0.333333      0.981417     Biso  1.000000 Al
   Al7        1.0     0.666667      0.333333      0.481417     Biso  1.000000 Al
   Al8        1.0     0.666667      0.333333      0.185249     Biso  1.000000 Al
   Al9        1.0     0.333333      0.666667      0.018583     Biso  1.000000 Al
   Al10       1.0     0.333333      0.666667      0.314751     Biso  1.000000 Al
   Al11       1.0     0.333333      0.666667      0.814751     Biso  1.000000 Al
   Al12       1.0     0.333333      0.666667      0.518583     Biso  1.000000 Al
   O1         1.0     0.306258      0.000000      0.250000     Biso  1.000000 O
   O2         1.0     0.693742     -0.000000      0.750000     Biso  1.000000 O
   O3         1.0     1.000000      0.306258      0.250000     Biso  1.000000 O
   O4         1.0     0.000000      0.693742      0.750000     Biso  1.000000 O
   O5         1.0     0.693742      0.693742      0.250000     Biso  1.000000 O
   O6         1.0     0.306258      0.306258      0.750000     Biso  1.000000 O
   O7         1.0     0.972924      0.333333      0.583333     Biso  1.000000 O
   O8         1.0     0.360409      0.333333      0.083333     Biso  1.000000 O
   O9         1.0     0.666667      0.639591      0.583333     Biso  1.000000 O
   O10        1.0     0.666667      0.027076      0.083333     Biso  1.000000 O
   O11        1.0     0.360409      0.027076      0.583333     Biso  1.000000 O
   O12        1.0     0.972924      0.639591      0.083333     Biso  1.000000 O
   O13        1.0     0.639591      0.666667      0.916667     Biso  1.000000 O
   O14        1.0     0.027076      0.666667      0.416667     Biso  1.000000 O
   O15        1.0     0.333333      0.972924      0.916667     Biso  1.000000 O
   O16        1.0     0.333333      0.360409      0.416667     Biso  1.000000 O
   O17        1.0     0.027076      0.360409      0.916667     Biso  1.000000 O
   O18        1.0     0.639591      0.972924      0.416667     Biso  1.000000 O
