#======================================================================

# CRYSTAL DATA

#----------------------------------------------------------------------

data_VESTA_phase_1


_pd_phase_name                         ''
_cell_length_a                         22.63476
_cell_length_b                         22.63476
_cell_length_c                         3.52548
_cell_angle_alpha                      90
_cell_angle_beta                       90
_cell_angle_gamma                      120
_symmetry_space_group_name_H-M         'P 1'
_symmetry_Int_Tables_number            1

loop_
_symmetry_equiv_pos_as_xyz
   'x, y, z'

loop_
   _atom_site_label
   _atom_site_occupancy
   _atom_site_fract_x
   _atom_site_fract_y
   _atom_site_fract_z
   _atom_site_adp_type
   _atom_site_B_iso_or_equiv
   _atom_site_type_symbol
   O1         1.0     0.596200      0.298101      0.000000     Biso  1.000000 O
   O2         1.0     0.403800      0.701899      1.000000     Biso  1.000000 O
   O3         1.0     0.701899      0.298100      1.000000     Biso  1.000000 O
   O4         1.0     0.298101      0.701901      0.000000     Biso  1.000000 O
   O5         1.0     0.701900      0.403800      0.000001     Biso  1.000000 O
   O6         1.0     0.298100      0.596200      1.000000     Biso  1.000000 O
   C1         1.0     0.591585      0.408417      0.000000     Biso  1.000000 C
   C2         1.0     0.408415      0.591583      0.999999     Biso  1.000000 C
   C3         1.0     0.591583      0.183168      1.000000     Biso  1.000000 C
   C4         1.0     0.408417      0.816832      0.000001     Biso  1.000000 C
   C5         1.0     0.816832      0.408415      0.999999     Biso  1.000000 C
   C6         1.0     0.183167      0.591585      0.000000     Biso  1.000000 C
   C7         1.0     0.484566      0.409314      0.000000     Biso  1.000000 C
   C8         1.0     0.515433      0.590685      1.000000     Biso  1.000000 C
   C9         1.0     0.590686      0.075252      1.000000     Biso  1.000000 C
   C10        1.0     0.409314      0.924748      0.000001     Biso  1.000000 C
   C11        1.0     0.924748      0.515434      0.999999     Biso  1.000000 C
   C12        1.0     0.075252      0.484567      0.000000     Biso  1.000000 C
   C13        1.0     0.409313      0.484565      1.000000     Biso  1.000000 C
   C14        1.0     0.590686      0.515435      0.000000     Biso  1.000000 C
   C15        1.0     0.075251      0.590687      0.000000     Biso  1.000000 C
   C16        1.0     0.924748      0.409314      0.999999     Biso  1.000000 C
   C17        1.0     0.515435      0.924749      0.000000     Biso  1.000000 C
   C18        1.0     0.484565      0.075252      0.000000     Biso  1.000000 C
   C19        1.0     0.519985      0.373942      0.000000     Biso  1.000000 C
   C20        1.0     0.480016      0.626055      1.000000     Biso  1.000000 C
   C21        1.0     0.626057      0.146042      1.000000     Biso  1.000000 C
   C22        1.0     0.373943      0.853958      0.000001     Biso  1.000000 C
   C23        1.0     0.853957      0.480015      0.999999     Biso  1.000000 C
   C24        1.0     0.146042      0.519985      0.000000     Biso  1.000000 C
   C25        1.0     0.373943      0.519982      1.000000     Biso  1.000000 C
   C26        1.0     0.626059      0.480017      0.000000     Biso  1.000000 C
   C27        1.0     0.146042      0.626059      0.000000     Biso  1.000000 C
   C28        1.0     0.853958      0.373942      0.999999     Biso  1.000000 C
   C29        1.0     0.480017      0.853958      0.000000     Biso  1.000000 C
   C30        1.0     0.519983      0.146042      0.000000     Biso  1.000000 C
   C31        1.0     0.518892      0.481108      0.000000     Biso  1.000000 C
   C32        1.0     0.481109      0.518890      1.000000     Biso  1.000000 C
   C33        1.0     0.518891      0.037783      0.000000     Biso  1.000000 C
   C34        1.0     0.481109      0.962217      0.000000     Biso  1.000000 C
   C35        1.0     0.962217      0.481108      1.000000     Biso  1.000000 C
   C36        1.0     0.037783      0.518892      0.000000     Biso  1.000000 C
   B1         1.0     0.631057      0.368944      0.000001     Biso  1.000000 B
   B2         1.0     0.368943      0.631056      1.000000     Biso  1.000000 B
   B3         1.0     0.631056      0.262114      1.000000     Biso  1.000000 B
   B4         1.0     0.368944      0.737886      0.000000     Biso  1.000000 B
   B5         1.0     0.737886      0.368943      1.000000     Biso  1.000000 B
   B6         1.0     0.262113      0.631058      0.000000     Biso  1.000000 B
   H1         1.0     0.428741      0.380199      1.000000     Biso  1.000000 H
   H2         1.0     0.571261      0.619801      0.000000     Biso  1.000000 H
   H3         1.0     0.619801      0.048542      1.000000     Biso  1.000000 H
   H4         1.0     0.380199      0.951458      0.000000     Biso  1.000000 H
   H5         1.0     0.951458      0.571259      1.000000     Biso  1.000000 H
   H6         1.0     0.048542      0.428741      0.000000     Biso  1.000000 H
   H7         1.0     0.380199      0.428738      0.000000     Biso  1.000000 H
   H8         1.0     0.619801      0.571260      1.000000     Biso  1.000000 H
   H9         1.0     0.048541      0.619802      1.000000     Biso  1.000000 H
   H10        1.0     0.951459      0.380199      1.000000     Biso  1.000000 H
   H11        1.0     0.571261      0.951459      0.000000     Biso  1.000000 H
   H12        1.0     0.428739      0.048541      0.000000     Biso  1.000000 H
   H13        1.0     0.491853      0.317995      0.000000     Biso  1.000000 H
   H14        1.0     0.508147      0.682004      1.000000     Biso  1.000000 H
   H15        1.0     0.682005      0.173858      1.000000     Biso  1.000000 H
   H16        1.0     0.317996      0.826142      0.000001     Biso  1.000000 H
   H17        1.0     0.826142      0.508147      1.000000     Biso  1.000000 H
   H18        1.0     0.173857      0.491853      0.000000     Biso  1.000000 H
   H19        1.0     0.317994      0.491850      1.000000     Biso  1.000000 H
   H20        1.0     0.682006      0.508149      0.000000     Biso  1.000000 H
   H21        1.0     0.173857      0.682006      1.000000     Biso  1.000000 H
   H22        1.0     0.826143      0.317994      1.000000     Biso  1.000000 H
   H23        1.0     0.508149      0.826143      1.000000     Biso  1.000000 H
   H24        1.0     0.491851      0.173857      0.000000     Biso  1.000000 H
