#======================================================================

# CRYSTAL DATA

#----------------------------------------------------------------------

data_VESTA_phase_1


_pd_phase_name                         'Zn   O    N    C    H                 '
_cell_length_a                         15.50400
_cell_length_b                         15.39644
_cell_length_c                         19.54250
_cell_angle_alpha                      90
_cell_angle_beta                       90
_cell_angle_gamma                      90
_symmetry_space_group_name_H-M         'P 1'
_symmetry_Int_Tables_number            1

loop_
_symmetry_equiv_pos_as_xyz
   'x, y, z'

loop_
   _atom_site_label
   _atom_site_occupancy
   _atom_site_fract_x
   _atom_site_fract_y
   _atom_site_fract_z
   _atom_site_adp_type
   _atom_site_B_iso_or_equiv
   _atom_site_type_symbol
   Zn1        1.0     0.249203      0.270444      0.690019     Biso  1.000000 Zn
   Zn2        1.0     0.747996      0.764832      0.348100     Biso  1.000000 Zn
   Zn3        1.0     0.748969      0.769864      0.847295     Biso  1.000000 Zn
   Zn4        1.0     0.249044      0.266389      0.188039     Biso  1.000000 Zn
   Zn5        1.0     0.249346      0.271375      0.839876     Biso  1.000000 Zn
   Zn6        1.0     0.748236      0.765168      0.198074     Biso  1.000000 Zn
   Zn7        1.0     0.749089      0.771119      0.697636     Biso  1.000000 Zn
   Zn8        1.0     0.249059      0.265554      0.338008     Biso  1.000000 Zn
   O1         1.0     0.340874      0.176260      0.705157     Biso  1.000000 O
   O2         1.0     0.656586      0.857597      0.330230     Biso  1.000000 O
   O3         1.0     0.159049      0.366425      0.705667     Biso  1.000000 O
   O4         1.0     0.840093      0.671558      0.332124     Biso  1.000000 O
   O5         1.0     0.341351      0.360646      0.709744     Biso  1.000000 O
   O6         1.0     0.655604      0.672735      0.331199     Biso  1.000000 O
   O7         1.0     0.156186      0.181164      0.710578     Biso  1.000000 O
   O8         1.0     0.840634      0.857580      0.331361     Biso  1.000000 O
   O9         1.0     0.657068      0.679682      0.825140     Biso  1.000000 O
   O10        1.0     0.341358      0.358373      0.204122     Biso  1.000000 O
   O11        1.0     0.841567      0.860674      0.828053     Biso  1.000000 O
   O12        1.0     0.156171      0.174451      0.205127     Biso  1.000000 O
   O13        1.0     0.657398      0.863940      0.833466     Biso  1.000000 O
   O14        1.0     0.340761      0.173762      0.206851     Biso  1.000000 O
   O15        1.0     0.840493      0.675910      0.834574     Biso  1.000000 O
   O16        1.0     0.158672      0.361683      0.201456     Biso  1.000000 O
   O17        1.0     0.341241      0.181933      0.821193     Biso  1.000000 O
   O18        1.0     0.657053      0.856796      0.214086     Biso  1.000000 O
   O19        1.0     0.157861      0.360512      0.821696     Biso  1.000000 O
   O20        1.0     0.838782      0.673826      0.216005     Biso  1.000000 O
   O21        1.0     0.340338      0.364421      0.825854     Biso  1.000000 O
   O22        1.0     0.657579      0.674055      0.215039     Biso  1.000000 O
   O23        1.0     0.160064      0.176544      0.826531     Biso  1.000000 O
   O24        1.0     0.839609      0.856320      0.215311     Biso  1.000000 O
   O25        1.0     0.658156      0.677718      0.709146     Biso  1.000000 O
   O26        1.0     0.340899      0.355906      0.320252     Biso  1.000000 O
   O27        1.0     0.841277      0.862977      0.711901     Biso  1.000000 O
   O28        1.0     0.156914      0.175457      0.321207     Biso  1.000000 O
   O29        1.0     0.658805      0.862065      0.717322     Biso  1.000000 O
   O30        1.0     0.339049      0.172974      0.323054     Biso  1.000000 O
   O31        1.0     0.840292      0.680967      0.718630     Biso  1.000000 O
   O32        1.0     0.160732      0.358607      0.317486     Biso  1.000000 O
   N1         1.0     0.250586      0.267489      0.580202     Biso  1.000000 N
   N2         1.0     0.746047      0.769012      0.456787     Biso  1.000000 N
   N3         1.0     0.748389      0.767540      0.956661     Biso  1.000000 N
   N4         1.0     0.249373      0.266042      0.447187     Biso  1.000000 N
   N5         1.0     0.746507      0.770499      0.589397     Biso  1.000000 N
   N6         1.0     0.247673      0.271504      0.947691     Biso  1.000000 N
   N7         1.0     0.248760      0.269879      0.079780     Biso  1.000000 N
   N8         1.0     0.748460      0.765982      0.089224     Biso  1.000000 N
   C1         1.0     0.367325      0.152951      0.763973     Biso  1.000000 C
   C2         1.0     0.631056      0.883909      0.271990     Biso  1.000000 C
   C3         1.0     0.132486      0.389941      0.764356     Biso  1.000000 C
   C4         1.0     0.867072      0.647987      0.273533     Biso  1.000000 C
   C5         1.0     0.367126      0.388640      0.767449     Biso  1.000000 C
   C6         1.0     0.630094      0.647646      0.272636     Biso  1.000000 C
   C7         1.0     0.132113      0.152317      0.768559     Biso  1.000000 C
   C8         1.0     0.865708      0.883947      0.272969     Biso  1.000000 C
   C9         1.0     0.631317      0.652449      0.767272     Biso  1.000000 C
   C10        1.0     0.366552      0.384033      0.262574     Biso  1.000000 C
   C11        1.0     0.867968      0.887703      0.770241     Biso  1.000000 C
   C12        1.0     0.129935      0.149013      0.263437     Biso  1.000000 C
   C13        1.0     0.631857      0.889220      0.774954     Biso  1.000000 C
   C14        1.0     0.366659      0.147805      0.265095     Biso  1.000000 C
   C15        1.0     0.867007      0.652534      0.775856     Biso  1.000000 C
   C16        1.0     0.134116      0.387086      0.260226     Biso  1.000000 C
   C17        1.0     0.435590      0.084837      0.767103     Biso  1.000000 C
   C18        1.0     0.563918      0.953234      0.270710     Biso  1.000000 C
   C19        1.0     0.064602      0.458547      0.767277     Biso  1.000000 C
   C20        1.0     0.938644      0.583064      0.270868     Biso  1.000000 C
   C21        1.0     0.435628      0.456622      0.766909     Biso  1.000000 C
   C22        1.0     0.560912      0.580561      0.270284     Biso  1.000000 C
   C23        1.0     0.064467      0.083470      0.768955     Biso  1.000000 C
   C24        1.0     0.932596      0.953788      0.271024     Biso  1.000000 C
   C25        1.0     0.563101      0.584303      0.767187     Biso  1.000000 C
   C26        1.0     0.433192      0.453577      0.264460     Biso  1.000000 C
   C27        1.0     0.936960      0.955390      0.770258     Biso  1.000000 C
   C28        1.0     0.060623      0.081590      0.265181     Biso  1.000000 C
   C29        1.0     0.563430      0.957393      0.772656     Biso  1.000000 C
   C30        1.0     0.436192      0.080780      0.266409     Biso  1.000000 C
   C31        1.0     0.936077      0.585217      0.773296     Biso  1.000000 C
   C32        1.0     0.067197      0.456560      0.263188     Biso  1.000000 C
   C33        1.0     0.469900      0.050808      0.706775     Biso  1.000000 C
   C34        1.0     0.530633      0.987245      0.331489     Biso  1.000000 C
   C35        1.0     0.030582      0.493183      0.707066     Biso  1.000000 C
   C36        1.0     0.973568      0.548157      0.330706     Biso  1.000000 C
   C37        1.0     0.467128      0.489291      0.705062     Biso  1.000000 C
   C38        1.0     0.526491      0.546705      0.330645     Biso  1.000000 C
   C39        1.0     0.032285      0.050475      0.707504     Biso  1.000000 C
   C40        1.0     0.966100      0.988986      0.331345     Biso  1.000000 C
   C41        1.0     0.531619      0.551566      0.828949     Biso  1.000000 C
   C42        1.0     0.466652      0.488331      0.203994     Biso  1.000000 C
   C43        1.0     0.969326      0.988215      0.831793     Biso  1.000000 C
   C44        1.0     0.026221      0.047294      0.204913     Biso  1.000000 C
   C45        1.0     0.529155      0.991342      0.833118     Biso  1.000000 C
   C46        1.0     0.470320      0.047558      0.205661     Biso  1.000000 C
   C47        1.0     0.970471      0.551035      0.833628     Biso  1.000000 C
   C48        1.0     0.033021      0.492152      0.203269     Biso  1.000000 C
   C49        1.0     0.465598      0.054730      0.830304     Biso  1.000000 C
   C50        1.0     0.533674      0.984123      0.207882     Biso  1.000000 C
   C51        1.0     0.034251      0.487995      0.830597     Biso  1.000000 C
   C52        1.0     0.969403      0.555216      0.207245     Biso  1.000000 C
   C53        1.0     0.468253      0.488124      0.828751     Biso  1.000000 C
   C54        1.0     0.530258      0.551480      0.207018     Biso  1.000000 C
   C55        1.0     0.032631      0.051878      0.831100     Biso  1.000000 C
   C56        1.0     0.962807      0.983855      0.207899     Biso  1.000000 C
   C57        1.0     0.530469      0.552905      0.705254     Biso  1.000000 C
   C58        1.0     0.462948      0.483572      0.327637     Biso  1.000000 C
   C59        1.0     0.969005      0.986896      0.708196     Biso  1.000000 C
   C60        1.0     0.029680      0.052273      0.328330     Biso  1.000000 C
   C61        1.0     0.533331      0.987579      0.709551     Biso  1.000000 C
   C62        1.0     0.467107      0.050554      0.329261     Biso  1.000000 C
   C63        1.0     0.966670      0.556002      0.710084     Biso  1.000000 C
   C64        1.0     0.037189      0.485110      0.326758     Biso  1.000000 C
   C65        1.0     0.772459      0.856139      0.561402     Biso  1.000000 C
   C66        1.0     0.756272      0.858743      0.483485     Biso  1.000000 C
   C67        1.0     0.659269      0.750355      0.562494     Biso  1.000000 C
   C68        1.0     0.663749      0.734498      0.484566     Biso  1.000000 C
   C69        1.0     0.806785      0.704001      0.562371     Biso  1.000000 C
   C70        1.0     0.817664      0.715610      0.484595     Biso  1.000000 C
   C71        1.0     0.229315      0.179776      0.553405     Biso  1.000000 C
   C72        1.0     0.213278      0.184258      0.475429     Biso  1.000000 C
   C73        1.0     0.336292      0.291609      0.552097     Biso  1.000000 C
   C74        1.0     0.338442      0.275325      0.474038     Biso  1.000000 C
   C75        1.0     0.186095      0.329447      0.552457     Biso  1.000000 C
   C76        1.0     0.197496      0.339221      0.474482     Biso  1.000000 C
   C77        1.0     0.754013      0.856186      0.063047     Biso  1.000000 C
   C78        1.0     0.744869      0.857221      0.984249     Biso  1.000000 C
   C79        1.0     0.823012      0.716631      0.061998     Biso  1.000000 C
   C80        1.0     0.827399      0.725077      0.983317     Biso  1.000000 C
   C81        1.0     0.668360      0.726358      0.062046     Biso  1.000000 C
   C82        1.0     0.672781      0.719176      0.983218     Biso  1.000000 C
   C83        1.0     0.164874      0.238482      0.052958     Biso  1.000000 C
   C84        1.0     0.168703      0.229285      0.974457     Biso  1.000000 C
   C85        1.0     0.262258      0.359340      0.053631     Biso  1.000000 C
   C86        1.0     0.250841      0.361205      0.975110     Biso  1.000000 C
   C87        1.0     0.318494      0.214131      0.052176     Biso  1.000000 C
   C88        1.0     0.323576      0.223346      0.973751     Biso  1.000000 C
   H1         1.0     0.304975      0.146960      0.068449     Biso  1.000000 H
   H2         1.0     0.379365      0.233533      0.076818     Biso  1.000000 H
   H3         1.0     0.304316      0.395466      0.949710     Biso  1.000000 H
   H4         1.0     0.190654      0.393604      0.959314     Biso  1.000000 H
   H5         1.0     0.169979      0.161013      0.957678     Biso  1.000000 H
   H6         1.0     0.112586      0.259814      0.949661     Biso  1.000000 H
   H7         1.0     0.325219      0.159550      0.948332     Biso  1.000000 H
   H8         1.0     0.381480      0.259001      0.956955     Biso  1.000000 H
   H9         1.0     0.614396      0.745919      0.959081     Biso  1.000000 H
   H10        1.0     0.679050      0.651411      0.965768     Biso  1.000000 H
   H11        1.0     0.683311      0.885824      0.967312     Biso  1.000000 H
   H12        1.0     0.796958      0.894866      0.959981     Biso  1.000000 H
   H13        1.0     0.833379      0.661300      0.958371     Biso  1.000000 H
   H14        1.0     0.882849      0.764334      0.966336     Biso  1.000000 H
   H15        1.0     0.115546      0.285541      0.069608     Biso  1.000000 H
   H16        1.0     0.215669      0.402266      0.079400     Biso  1.000000 H
   H17        1.0     0.327208      0.379919      0.069740     Biso  1.000000 H
   H18        1.0     0.149678      0.176293      0.077963     Biso  1.000000 H
   H19        1.0     0.660441      0.662250      0.086162     Biso  1.000000 H
   H20        1.0     0.815574      0.648701      0.078766     Biso  1.000000 H
   H21        1.0     0.881891      0.741846      0.086457     Biso  1.000000 H
   H22        1.0     0.614105      0.767011      0.079437     Biso  1.000000 H
   H23        1.0     0.816256      0.882868      0.080346     Biso  1.000000 H
   H24        1.0     0.193259      0.391953      0.579281     Biso  1.000000 H
   H25        1.0     0.121826      0.303985      0.565894     Biso  1.000000 H
   H26        1.0     0.135048      0.340547      0.447571     Biso  1.000000 H
   H27        1.0     0.231632      0.399643      0.460917     Biso  1.000000 H
   H28        1.0     0.702900      0.894413      0.088038     Biso  1.000000 H
   H29        1.0     0.385901      0.253369      0.579023     Biso  1.000000 H
   H30        1.0     0.347472      0.360432      0.564817     Biso  1.000000 H
   H31        1.0     0.373227      0.215156      0.460823     Biso  1.000000 H
   H32        1.0     0.370299      0.328734      0.446230     Biso  1.000000 H
   H33        1.0     0.172601      0.154976      0.581228     Biso  1.000000 H
   H34        1.0     0.284032      0.137026      0.566204     Biso  1.000000 H
   H35        1.0     0.143967      0.183374      0.462868     Biso  1.000000 H
   H36        1.0     0.243105      0.129092      0.448348     Biso  1.000000 H
   H37        1.0     0.779604      0.639981      0.575529     Biso  1.000000 H
   H38        1.0     0.868697      0.709697      0.589713     Biso  1.000000 H
   H39        1.0     0.878218      0.749368      0.471689     Biso  1.000000 H
   H40        1.0     0.818765      0.652913      0.457469     Biso  1.000000 H
   H41        1.0     0.617411      0.805821      0.575506     Biso  1.000000 H
   H42        1.0     0.634147      0.693525      0.590324     Biso  1.000000 H
   H43        1.0     0.610052      0.766413      0.457456     Biso  1.000000 H
   H44        1.0     0.660892      0.664896      0.471577     Biso  1.000000 H
   H45        1.0     0.840961      0.865753      0.574474     Biso  1.000000 H
   H46        1.0     0.735749      0.906904      0.588551     Biso  1.000000 H
   H47        1.0     0.809506      0.890426      0.455704     Biso  1.000000 H
   H48        1.0     0.696668      0.894222      0.470711     Biso  1.000000 H
   H49        1.0     0.437738      0.082578      0.876817     Biso  1.000000 H
   H50        1.0     0.560939      0.956840      0.161112     Biso  1.000000 H
   H51        1.0     0.061871      0.460009      0.877193     Biso  1.000000 H
   H52        1.0     0.941055      0.583521      0.161170     Biso  1.000000 H
   H53        1.0     0.442350      0.461274      0.876208     Biso  1.000000 H
   H54        1.0     0.557765      0.579573      0.160549     Biso  1.000000 H
   H55        1.0     0.058817      0.078868      0.878423     Biso  1.000000 H
   H56        1.0     0.935471      0.955749      0.161422     Biso  1.000000 H
   H57        1.0     0.556137      0.579681      0.657660     Biso  1.000000 H
   H58        1.0     0.435007      0.455706      0.373965     Biso  1.000000 H
   H59        1.0     0.942474      0.960275      0.660847     Biso  1.000000 H
   H60        1.0     0.057197      0.080225      0.374851     Biso  1.000000 H
   H61        1.0     0.561371      0.959594      0.663217     Biso  1.000000 H
   H62        1.0     0.439542      0.078040      0.376046     Biso  1.000000 H
   H63        1.0     0.938738      0.583943      0.663630     Biso  1.000000 H
   H64        1.0     0.064960      0.456061      0.372725     Biso  1.000000 H
   H65        1.0     0.445505      0.075221      0.658041     Biso  1.000000 H
   H66        1.0     0.555806      0.962445      0.380036     Biso  1.000000 H
   H67        1.0     0.948942      0.570835      0.379952     Biso  1.000000 H
   H68        1.0     0.550933      0.571067      0.379420     Biso  1.000000 H
   H69        1.0     0.057859      0.075944      0.659453     Biso  1.000000 H
   H70        1.0     0.941595      0.965348      0.380329     Biso  1.000000 H
   H71        1.0     0.558070      0.577052      0.876689     Biso  1.000000 H
   H72        1.0     0.441906      0.464489      0.155145     Biso  1.000000 H
   H73        1.0     0.943695      0.962942      0.879931     Biso  1.000000 H
   H74        1.0     0.553575      0.966943      0.882011     Biso  1.000000 H
   H75        1.0     0.445742      0.072455      0.157152     Biso  1.000000 H
   H76        1.0     0.945945      0.575105      0.882473     Biso  1.000000 H
   H77        1.0     0.055502      0.469348      0.658322     Biso  1.000000 H
   H78        1.0     0.440810      0.463939      0.657175     Biso  1.000000 H
   H79        1.0     0.050634      0.071247      0.155973     Biso  1.000000 H
   H80        1.0     0.056999      0.468823      0.154046     Biso  1.000000 H
