#======================================================================

# CRYSTAL DATA

#----------------------------------------------------------------------

data_VESTA_phase_1


_pd_phase_name                         ''
_cell_length_a                         9.64412
_cell_length_b                         12.78036
_cell_length_c                         17.60142
_cell_angle_alpha                      90
_cell_angle_beta                       90
_cell_angle_gamma                      90
_symmetry_space_group_name_H-M         'P 1'
_symmetry_Int_Tables_number            1

loop_
_symmetry_equiv_pos_as_xyz
   'x, y, z'

loop_
   _atom_site_label
   _atom_site_occupancy
   _atom_site_fract_x
   _atom_site_fract_y
   _atom_site_fract_z
   _atom_site_adp_type
   _atom_site_B_iso_or_equiv
   _atom_site_type_symbol
   Zn1        1.0     0.143165      0.503785      0.002114     Biso  1.000000 Zn
   Zn2        1.0     0.844779      0.503128      0.002029     Biso  1.000000 Zn
   Zn3        1.0     0.142287      0.008866      0.500982     Biso  1.000000 Zn
   Zn4        1.0     0.843415      0.000690      0.501158     Biso  1.000000 Zn
   O1         1.0     0.105780      0.399163      0.085960     Biso  1.000000 O
   O2         1.0     0.883243      0.612181      0.919569     Biso  1.000000 O
   O3         1.0     0.118439      0.614811      0.920372     Biso  1.000000 O
   O4         1.0     0.871177      0.391446      0.083028     Biso  1.000000 O
   O5         1.0     0.881591      0.612915      0.083266     Biso  1.000000 O
   O6         1.0     0.105589      0.400171      0.916619     Biso  1.000000 O
   O7         1.0     0.870745      0.391408      0.920827     Biso  1.000000 O
   O8         1.0     0.116553      0.616235      0.082366     Biso  1.000000 O
   O9         1.0     0.114963      0.901035      0.584811     Biso  1.000000 O
   O10        1.0     0.873641      0.109519      0.418729     Biso  1.000000 O
   O11        1.0     0.108339      0.120491      0.420887     Biso  1.000000 O
   O12        1.0     0.880209      0.893203      0.584059     Biso  1.000000 O
   O13        1.0     0.872490      0.109051      0.584169     Biso  1.000000 O
   O14        1.0     0.110765      0.901568      0.416981     Biso  1.000000 O
   O15        1.0     0.875906      0.894325      0.417249     Biso  1.000000 O
   O16        1.0     0.106891      0.121181      0.581095     Biso  1.000000 O
   N1         1.0     0.360523      0.502023      0.006366     Biso  1.000000 N
   N2         1.0     0.627303      0.503524      0.006203     Biso  1.000000 N
   N3         1.0     0.359299      0.005776      0.499281     Biso  1.000000 N
   N4         1.0     0.626203      0.004158      0.500352     Biso  1.000000 N
   C1         1.0     0.988614      0.370879      0.111888     Biso  1.000000 C
   C2         1.0     0.000736      0.640482      0.893769     Biso  1.000000 C
   C3         1.0     0.998815      0.642198      0.108643     Biso  1.000000 C
   C4         1.0     0.988061      0.371499      0.891334     Biso  1.000000 C
   C5         1.0     0.998521      0.874301      0.612803     Biso  1.000000 C
   C6         1.0     0.989736      0.140361      0.393012     Biso  1.000000 C
   C7         1.0     0.988543      0.140432      0.609628     Biso  1.000000 C
   C8         1.0     0.994510      0.875663      0.388643     Biso  1.000000 C
   C9         1.0     0.988945      0.310236      0.184133     Biso  1.000000 C
   C10        1.0     0.000838      0.707564      0.824230     Biso  1.000000 C
   C11        1.0     0.998703      0.710397      0.177377     Biso  1.000000 C
   C12        1.0     0.987627      0.310946      0.818853     Biso  1.000000 C
   C13        1.0     0.000439      0.817177      0.686980     Biso  1.000000 C
   C14        1.0     0.987297      0.202948      0.321671     Biso  1.000000 C
   C15        1.0     0.986266      0.203109      0.681120     Biso  1.000000 C
   C16        1.0     0.996916      0.819574      0.314276     Biso  1.000000 C
   C17        1.0     0.875745      0.741657      0.792713     Biso  1.000000 C
   C18        1.0     0.126057      0.732250      0.788358     Biso  1.000000 C
   C19        1.0     0.878937      0.243218      0.201612     Biso  1.000000 C
   C20        1.0     0.873131      0.743947      0.208582     Biso  1.000000 C
   C21        1.0     0.878408      0.243142      0.801558     Biso  1.000000 C
   C22        1.0     0.123826      0.735921      0.212991     Biso  1.000000 C
   C23        1.0     0.096443      0.270803      0.304488     Biso  1.000000 C
   C24        1.0     0.094215      0.272404      0.697847     Biso  1.000000 C
   C25        1.0     0.097197      0.324264      0.235967     Biso  1.000000 C
   C26        1.0     0.094750      0.326034      0.766366     Biso  1.000000 C
   C27        1.0     0.126021      0.786784      0.720122     Biso  1.000000 C
   C28        1.0     0.878183      0.189676      0.270245     Biso  1.000000 C
   C29        1.0     0.875603      0.796045      0.724505     Biso  1.000000 C
   C30        1.0     0.877842      0.189432      0.732935     Biso  1.000000 C
   C31        1.0     0.123026      0.790317      0.281212     Biso  1.000000 C
   C32        1.0     0.872330      0.798165      0.276769     Biso  1.000000 C
   C33        1.0     0.572771      0.611268      0.014419     Biso  1.000000 C
   C34        1.0     0.413374      0.610963      0.005916     Biso  1.000000 C
   C35        1.0     0.571033      0.047224      0.572499     Biso  1.000000 C
   C36        1.0     0.413719      0.027142      0.576755     Biso  1.000000 C
   C37        1.0     0.573526      0.458605      0.934336     Biso  1.000000 C
   C38        1.0     0.414804      0.446872      0.938573     Biso  1.000000 C
   C39        1.0     0.574112      0.440248      0.070575     Biso  1.000000 C
   C40        1.0     0.414690      0.449511      0.075336     Biso  1.000000 C
   C41        1.0     0.569993      0.896815      0.490178     Biso  1.000000 C
   C42        1.0     0.413198      0.902486      0.474220     Biso  1.000000 C
   C43        1.0     0.573144      0.070273      0.437429     Biso  1.000000 C
   C44        1.0     0.416142      0.086580      0.447268     Biso  1.000000 C
   H1         1.0     0.606673      0.639793      0.070526     Biso  1.000000 H
   H2         1.0     0.361388      0.653114      0.052517     Biso  1.000000 H
   H3         1.0     0.626193      0.383302      0.924963     Biso  1.000000 H
   H4         1.0     0.606480      0.511335      0.888139     Biso  1.000000 H
   H5         1.0     0.382219      0.364457      0.943114     Biso  1.000000 H
   H6         1.0     0.362780      0.479674      0.888173     Biso  1.000000 H
   H7         1.0     0.625532      0.467678      0.122825     Biso  1.000000 H
   H8         1.0     0.608472      0.359062      0.061229     Biso  1.000000 H
   H9         1.0     0.380989      0.496663      0.124496     Biso  1.000000 H
   H10        1.0     0.363922      0.372602      0.080417     Biso  1.000000 H
   H11        1.0     0.594014      0.853014      0.542546     Biso  1.000000 H
   H12        1.0     0.627347      0.859526      0.443285     Biso  1.000000 H
   H13        1.0     0.355220      0.840712      0.504168     Biso  1.000000 H
   H14        1.0     0.389055      0.894880      0.413194     Biso  1.000000 H
   H15        1.0     0.598098      0.029645      0.383870     Biso  1.000000 H
   H16        1.0     0.631273      0.144470      0.437056     Biso  1.000000 H
   H17        1.0     0.360030      0.082248      0.392902     Biso  1.000000 H
   H18        1.0     0.391398      0.163238      0.472449     Biso  1.000000 H
   H19        1.0     0.598335      0.130947      0.573987     Biso  1.000000 H
   H20        1.0     0.627263      0.010128      0.619831     Biso  1.000000 H
   H21        1.0     0.390093      0.957904      0.611778     Biso  1.000000 H
   H22        1.0     0.355060      0.093591      0.600585     Biso  1.000000 H
   H23        1.0     0.623619      0.660719      0.971344     Biso  1.000000 H
   H24        1.0     0.378739      0.647028      0.952314     Biso  1.000000 H
   H25        1.0     0.777235      0.724711      0.178586     Biso  1.000000 H
   H26        1.0     0.775612      0.824465      0.302935     Biso  1.000000 H
   H27        1.0     0.778954      0.822461      0.698286     Biso  1.000000 H
   H28        1.0     0.779425      0.722838      0.822492     Biso  1.000000 H
   H29        1.0     0.220653      0.710304      0.186450     Biso  1.000000 H
   H30        1.0     0.219391      0.810287      0.310628     Biso  1.000000 H
   H31        1.0     0.222843      0.805699      0.690821     Biso  1.000000 H
   H32        1.0     0.222620      0.705983      0.814838     Biso  1.000000 H
   H33        1.0     0.180292      0.379207      0.222063     Biso  1.000000 H
   H34        1.0     0.179514      0.281345      0.346060     Biso  1.000000 H
   H35        1.0     0.176795      0.283964      0.656165     Biso  1.000000 H
   H36        1.0     0.176874      0.381905      0.780103     Biso  1.000000 H
   H37        1.0     0.794468      0.234707      0.160493     Biso  1.000000 H
   H38        1.0     0.794198      0.136017      0.285532     Biso  1.000000 H
   H39        1.0     0.794058      0.135116      0.718401     Biso  1.000000 H
   H40        1.0     0.794653      0.233835      0.842983     Biso  1.000000 H
