#======================================================================

# CRYSTAL DATA

#----------------------------------------------------------------------

data_VESTA_phase_1


_pd_phase_name                         'irmof-14                              '
_cell_length_a                         24.29984
_cell_length_b                         24.29984
_cell_length_c                         24.29984
_cell_angle_alpha                      60.00000
_cell_angle_beta                       60.00000
_cell_angle_gamma                      60.00000
_symmetry_space_group_name_H-M         'P 1'
_symmetry_Int_Tables_number            1

loop_
_symmetry_equiv_pos_as_xyz
   'x, y, z'

loop_
   _atom_site_label
   _atom_site_occupancy
   _atom_site_fract_x
   _atom_site_fract_y
   _atom_site_fract_z
   _atom_site_adp_type
   _atom_site_B_iso_or_equiv
   _atom_site_type_symbol
   C1         1.0     0.145613      0.145613      0.354387     Biso  1.000000 C
   C2         1.0     0.354387      0.354387      0.145613     Biso  1.000000 C
   C3         1.0     0.354388      0.145612      0.145612     Biso  1.000000 C
   C4         1.0     0.145612      0.354388      0.354388     Biso  1.000000 C
   C5         1.0     0.145612      0.354388      0.145612     Biso  1.000000 C
   C6         1.0     0.354388      0.145612      0.354388     Biso  1.000000 C
   C7         1.0     0.854387      0.854387      0.645613     Biso  1.000000 C
   C8         1.0     0.645613      0.645613      0.854387     Biso  1.000000 C
   C9         1.0     0.645612      0.854388      0.645612     Biso  1.000000 C
   C10        1.0     0.854388      0.645612      0.854388     Biso  1.000000 C
   C11        1.0     0.854388      0.645612      0.645612     Biso  1.000000 C
   C12        1.0     0.645612      0.854388      0.854388     Biso  1.000000 C
   C13        1.0     0.102280      0.102280      0.397720     Biso  1.000000 C
   C14        1.0     0.397720      0.397720      0.102280     Biso  1.000000 C
   C15        1.0     0.397721      0.102279      0.102279     Biso  1.000000 C
   C16        1.0     0.102279      0.397721      0.397721     Biso  1.000000 C
   C17        1.0     0.102279      0.397721      0.102279     Biso  1.000000 C
   C18        1.0     0.397721      0.102279      0.397721     Biso  1.000000 C
   C19        1.0     0.897720      0.897720      0.602280     Biso  1.000000 C
   C20        1.0     0.602280      0.602280      0.897720     Biso  1.000000 C
   C21        1.0     0.602279      0.897721      0.602279     Biso  1.000000 C
   C22        1.0     0.897721      0.602279      0.897721     Biso  1.000000 C
   C23        1.0     0.897721      0.602279      0.602279     Biso  1.000000 C
   C24        1.0     0.602279      0.897721      0.897721     Biso  1.000000 C
   C25        1.0     0.020639      0.020639      0.479361     Biso  1.000000 C
   C26        1.0     0.479361      0.479361      0.020639     Biso  1.000000 C
   C27        1.0     0.479362      0.020638      0.020638     Biso  1.000000 C
   C28        1.0     0.020638      0.479362      0.479362     Biso  1.000000 C
   C29        1.0     0.020638      0.479362      0.020638     Biso  1.000000 C
   C30        1.0     0.479362      0.020638      0.479362     Biso  1.000000 C
   C31        1.0     0.979361      0.979361      0.520639     Biso  1.000000 C
   C32        1.0     0.520639      0.520639      0.979361     Biso  1.000000 C
   C33        1.0     0.520638      0.979362      0.520638     Biso  1.000000 C
   C34        1.0     0.979362      0.520638      0.979362     Biso  1.000000 C
   C35        1.0     0.979362      0.520638      0.520638     Biso  1.000000 C
   C36        1.0     0.520638      0.979362      0.979362     Biso  1.000000 C
   C37        1.0     0.082106      0.082106      0.367999     Biso  1.000000 C
   C38        1.0     0.082106      0.082106      0.467788     Biso  1.000000 C
   C39        1.0     0.367999      0.467788      0.082106     Biso  1.000000 C
   C40        1.0     0.467788      0.367999      0.082106     Biso  1.000000 C
   C41        1.0     0.368000      0.082106      0.082105     Biso  1.000000 C
   C42        1.0     0.467789      0.082105      0.082106     Biso  1.000000 C
   C43        1.0     0.082106      0.368000      0.467789     Biso  1.000000 C
   C44        1.0     0.082105      0.467789      0.368000     Biso  1.000000 C
   C45        1.0     0.082106      0.368000      0.082105     Biso  1.000000 C
   C46        1.0     0.082105      0.467789      0.082106     Biso  1.000000 C
   C47        1.0     0.467789      0.082105      0.368000     Biso  1.000000 C
   C48        1.0     0.368000      0.082106      0.467789     Biso  1.000000 C
   C49        1.0     0.917894      0.917894      0.532212     Biso  1.000000 C
   C50        1.0     0.917894      0.917894      0.632001     Biso  1.000000 C
   C51        1.0     0.632001      0.532212      0.917894     Biso  1.000000 C
   C52        1.0     0.532212      0.632001      0.917894     Biso  1.000000 C
   C53        1.0     0.632000      0.917894      0.532211     Biso  1.000000 C
   C54        1.0     0.532211      0.917895      0.632000     Biso  1.000000 C
   C55        1.0     0.917894      0.632000      0.917895     Biso  1.000000 C
   C56        1.0     0.917895      0.532211      0.917894     Biso  1.000000 C
   C57        1.0     0.917894      0.632000      0.532211     Biso  1.000000 C
   C58        1.0     0.917895      0.532211      0.632000     Biso  1.000000 C
   C59        1.0     0.532211      0.917895      0.917894     Biso  1.000000 C
   C60        1.0     0.632000      0.917894      0.917895     Biso  1.000000 C
   C61        1.0     0.041404      0.041404      0.407743     Biso  1.000000 C
   C62        1.0     0.041404      0.041404      0.509449     Biso  1.000000 C
   C63        1.0     0.407743      0.509449      0.041404     Biso  1.000000 C
   C64        1.0     0.509449      0.407743      0.041404     Biso  1.000000 C
   C65        1.0     0.407743      0.041404      0.041404     Biso  1.000000 C
   C66        1.0     0.509449      0.041404      0.041404     Biso  1.000000 C
   C67        1.0     0.041404      0.407743      0.509449     Biso  1.000000 C
   C68        1.0     0.041404      0.509449      0.407743     Biso  1.000000 C
   C69        1.0     0.041404      0.407743      0.041404     Biso  1.000000 C
   C70        1.0     0.041404      0.509449      0.041404     Biso  1.000000 C
   C71        1.0     0.509449      0.041404      0.407743     Biso  1.000000 C
   C72        1.0     0.407743      0.041404      0.509449     Biso  1.000000 C
   C73        1.0     0.958596      0.958596      0.490551     Biso  1.000000 C
   C74        1.0     0.958596      0.958596      0.592257     Biso  1.000000 C
   C75        1.0     0.592257      0.490551      0.958596     Biso  1.000000 C
   C76        1.0     0.490551      0.592257      0.958596     Biso  1.000000 C
   C77        1.0     0.592257      0.958596      0.490551     Biso  1.000000 C
   C78        1.0     0.490551      0.958596      0.592257     Biso  1.000000 C
   C79        1.0     0.958596      0.592257      0.958596     Biso  1.000000 C
   C80        1.0     0.958596      0.490551      0.958596     Biso  1.000000 C
   C81        1.0     0.958596      0.592257      0.490551     Biso  1.000000 C
   C82        1.0     0.958596      0.490551      0.592257     Biso  1.000000 C
   C83        1.0     0.490551      0.958596      0.958596     Biso  1.000000 C
   C84        1.0     0.592257      0.958596      0.958596     Biso  1.000000 C
   C85        1.0     0.019829      0.019829      0.378944     Biso  1.000000 C
   C86        1.0     0.019829      0.019829      0.581398     Biso  1.000000 C
   C87        1.0     0.378944      0.581398      0.019829     Biso  1.000000 C
   C88        1.0     0.581398      0.378944      0.019829     Biso  1.000000 C
   C89        1.0     0.378943      0.019829      0.019829     Biso  1.000000 C
   C90        1.0     0.581399      0.019829      0.019829     Biso  1.000000 C
   C91        1.0     0.019829      0.378943      0.581399     Biso  1.000000 C
   C92        1.0     0.019829      0.581399      0.378943     Biso  1.000000 C
   C93        1.0     0.019829      0.378943      0.019829     Biso  1.000000 C
   C94        1.0     0.019829      0.581399      0.019829     Biso  1.000000 C
   C95        1.0     0.581399      0.019829      0.378943     Biso  1.000000 C
   C96        1.0     0.378943      0.019829      0.581399     Biso  1.000000 C
   C97        1.0     0.980171      0.980171      0.418602     Biso  1.000000 C
   C98        1.0     0.980171      0.980171      0.621056     Biso  1.000000 C
   C99        1.0     0.621056      0.418602      0.980171     Biso  1.000000 C
   C100       1.0     0.418602      0.621056      0.980171     Biso  1.000000 C
   C101       1.0     0.621057      0.980171      0.418601     Biso  1.000000 C
   C102       1.0     0.418601      0.980171      0.621057     Biso  1.000000 C
   C103       1.0     0.980171      0.621057      0.980171     Biso  1.000000 C
   C104       1.0     0.980171      0.418601      0.980171     Biso  1.000000 C
   C105       1.0     0.980171      0.621057      0.418601     Biso  1.000000 C
   C106       1.0     0.980171      0.418601      0.621057     Biso  1.000000 C
   C107       1.0     0.418601      0.980171      0.980171     Biso  1.000000 C
   C108       1.0     0.621057      0.980171      0.980171     Biso  1.000000 C
   O1         1.0     0.162414      0.162414      0.384302     Biso  1.000000 O
   O2         1.0     0.162414      0.162414      0.290870     Biso  1.000000 O
   O3         1.0     0.384302      0.290870      0.162414     Biso  1.000000 O
   O4         1.0     0.290870      0.384302      0.162414     Biso  1.000000 O
   O5         1.0     0.384303      0.162405      0.162421     Biso  1.000000 O
   O6         1.0     0.290871      0.162421      0.162405     Biso  1.000000 O
   O7         1.0     0.162405      0.384303      0.290871     Biso  1.000000 O
   O8         1.0     0.162421      0.290871      0.384303     Biso  1.000000 O
   O9         1.0     0.162405      0.384303      0.162421     Biso  1.000000 O
   O10        1.0     0.162421      0.290871      0.162405     Biso  1.000000 O
   O11        1.0     0.290871      0.162421      0.384303     Biso  1.000000 O
   O12        1.0     0.384303      0.162405      0.290871     Biso  1.000000 O
   O13        1.0     0.837586      0.837586      0.709130     Biso  1.000000 O
   O14        1.0     0.837586      0.837586      0.615698     Biso  1.000000 O
   O15        1.0     0.615698      0.709130      0.837586     Biso  1.000000 O
   O16        1.0     0.709130      0.615698      0.837586     Biso  1.000000 O
   O17        1.0     0.615697      0.837595      0.709129     Biso  1.000000 O
   O18        1.0     0.709129      0.837579      0.615697     Biso  1.000000 O
   O19        1.0     0.837595      0.615697      0.837579     Biso  1.000000 O
   O20        1.0     0.837579      0.709129      0.837595     Biso  1.000000 O
   O21        1.0     0.837595      0.615697      0.709129     Biso  1.000000 O
   O22        1.0     0.837579      0.709129      0.615697     Biso  1.000000 O
   O23        1.0     0.709129      0.837579      0.837595     Biso  1.000000 O
   O24        1.0     0.615697      0.837595      0.837579     Biso  1.000000 O
   O25        1.0     0.250000      0.250000      0.250000     Biso  1.000000 O
   O26        1.0     0.750000      0.750000      0.750000     Biso  1.000000 O
   H1         1.0     0.098671      0.098671      0.312983     Biso  1.000000 H
   H2         1.0     0.098671      0.098671      0.489674     Biso  1.000000 H
   H3         1.0     0.312983      0.489674      0.098671     Biso  1.000000 H
   H4         1.0     0.489674      0.312983      0.098671     Biso  1.000000 H
   H5         1.0     0.312983      0.098672      0.098670     Biso  1.000000 H
   H6         1.0     0.489675      0.098670      0.098672     Biso  1.000000 H
   H7         1.0     0.098672      0.312983      0.489675     Biso  1.000000 H
   H8         1.0     0.098670      0.489675      0.312983     Biso  1.000000 H
   H9         1.0     0.098672      0.312983      0.098670     Biso  1.000000 H
   H10        1.0     0.098670      0.489675      0.098672     Biso  1.000000 H
   H11        1.0     0.489675      0.098670      0.312983     Biso  1.000000 H
   H12        1.0     0.312983      0.098672      0.489675     Biso  1.000000 H
   H13        1.0     0.901329      0.901329      0.510326     Biso  1.000000 H
   H14        1.0     0.901329      0.901329      0.687017     Biso  1.000000 H
   H15        1.0     0.687017      0.510326      0.901329     Biso  1.000000 H
   H16        1.0     0.510326      0.687017      0.901329     Biso  1.000000 H
   H17        1.0     0.687017      0.901328      0.510325     Biso  1.000000 H
   H18        1.0     0.510325      0.901330      0.687017     Biso  1.000000 H
   H19        1.0     0.901328      0.687017      0.901330     Biso  1.000000 H
   H20        1.0     0.901330      0.510325      0.901328     Biso  1.000000 H
   H21        1.0     0.901328      0.687017      0.510325     Biso  1.000000 H
   H22        1.0     0.901330      0.510325      0.687017     Biso  1.000000 H
   H23        1.0     0.510325      0.901330      0.901328     Biso  1.000000 H
   H24        1.0     0.687017      0.901328      0.901330     Biso  1.000000 H
   H25        1.0     0.036066      0.036066      0.323934     Biso  1.000000 H
   H26        1.0     0.036066      0.036066      0.603934     Biso  1.000000 H
   H27        1.0     0.323934      0.603934      0.036066     Biso  1.000000 H
   H28        1.0     0.603934      0.323934      0.036066     Biso  1.000000 H
   H29        1.0     0.323933      0.036067      0.036066     Biso  1.000000 H
   H30        1.0     0.603934      0.036066      0.036067     Biso  1.000000 H
   H31        1.0     0.036067      0.323933      0.603934     Biso  1.000000 H
   H32        1.0     0.036066      0.603934      0.323933     Biso  1.000000 H
   H33        1.0     0.036067      0.323933      0.036066     Biso  1.000000 H
   H34        1.0     0.036066      0.603934      0.036067     Biso  1.000000 H
   H35        1.0     0.603934      0.036066      0.323933     Biso  1.000000 H
   H36        1.0     0.323933      0.036067      0.603934     Biso  1.000000 H
   H37        1.0     0.963934      0.963934      0.396066     Biso  1.000000 H
   H38        1.0     0.963934      0.963934      0.676066     Biso  1.000000 H
   H39        1.0     0.676066      0.396066      0.963934     Biso  1.000000 H
   H40        1.0     0.396066      0.676066      0.963934     Biso  1.000000 H
   H41        1.0     0.676067      0.963933      0.396066     Biso  1.000000 H
   H42        1.0     0.396066      0.963934      0.676067     Biso  1.000000 H
   H43        1.0     0.963933      0.676067      0.963934     Biso  1.000000 H
   H44        1.0     0.963934      0.396066      0.963933     Biso  1.000000 H
   H45        1.0     0.963933      0.676067      0.396066     Biso  1.000000 H
   H46        1.0     0.963934      0.396066      0.676067     Biso  1.000000 H
   H47        1.0     0.396066      0.963934      0.963933     Biso  1.000000 H
   H48        1.0     0.676067      0.963933      0.963934     Biso  1.000000 H
   Zn1        1.0     0.217370      0.217370      0.347894     Biso  1.000000 Zn
   Zn2        1.0     0.217370      0.217370      0.217366     Biso  1.000000 Zn
   Zn3        1.0     0.347894      0.217366      0.217370     Biso  1.000000 Zn
   Zn4        1.0     0.217366      0.347894      0.217370     Biso  1.000000 Zn
   Zn5        1.0     0.782630      0.782630      0.782634     Biso  1.000000 Zn
   Zn6        1.0     0.782630      0.782630      0.652106     Biso  1.000000 Zn
   Zn7        1.0     0.652106      0.782634      0.782630     Biso  1.000000 Zn
   Zn8        1.0     0.782634      0.652106      0.782630     Biso  1.000000 Zn
