#======================================================================

# CRYSTAL DATA

#----------------------------------------------------------------------

data_VESTA_phase_1


_pd_phase_name                         'MOF-18                                '
_cell_length_a                         18.38280
_cell_length_b                         18.38173
_cell_length_c                         18.36570
_cell_angle_alpha                      59.97405
_cell_angle_beta                       59.79308
_cell_angle_gamma                      59.93327
_symmetry_space_group_name_H-M         'P 1'
_symmetry_Int_Tables_number            1

loop_
_symmetry_equiv_pos_as_xyz
   'x, y, z'

loop_
   _atom_site_label
   _atom_site_occupancy
   _atom_site_fract_x
   _atom_site_fract_y
   _atom_site_fract_z
   _atom_site_adp_type
   _atom_site_B_iso_or_equiv
   _atom_site_type_symbol
   Zn1        1.0     0.208550      0.206871      0.377579     Biso  1.000000 Zn
   Zn2        1.0     0.206462      0.206657      0.209503     Biso  1.000000 Zn
   Zn3        1.0     0.378151      0.210380      0.204846     Biso  1.000000 Zn
   Zn4        1.0     0.207121      0.380466      0.206870     Biso  1.000000 Zn
   Zn5        1.0     0.792924      0.792267      0.792341     Biso  1.000000 Zn
   Zn6        1.0     0.792598      0.793027      0.621065     Biso  1.000000 Zn
   Zn7        1.0     0.620799      0.793085      0.792331     Biso  1.000000 Zn
   Zn8        1.0     0.792044      0.621686      0.793665     Biso  1.000000 Zn
   O1         1.0     0.249670      0.251798      0.249190     Biso  1.000000 O
   O2         1.0     0.749531      0.749951      0.749831     Biso  1.000000 O
   O3         1.0     0.307201      0.126772      0.422127     Biso  1.000000 O
   O4         1.0     0.133746      0.305496      0.138493     Biso  1.000000 O
   O5         1.0     0.426802      0.148017      0.300929     Biso  1.000000 O
   O6         1.0     0.156997      0.425184      0.114919     Biso  1.000000 O
   O7         1.0     0.418221      0.310927      0.113128     Biso  1.000000 O
   O8         1.0     0.116192      0.154483      0.307108     Biso  1.000000 O
   O9         1.0     0.306019      0.421867      0.163798     Biso  1.000000 O
   O10        1.0     0.146994      0.124230      0.424617     Biso  1.000000 O
   O11        1.0     0.110887      0.421221      0.306568     Biso  1.000000 O
   O12        1.0     0.303114      0.118543      0.153976     Biso  1.000000 O
   O13        1.0     0.152441      0.306086      0.421107     Biso  1.000000 O
   O14        1.0     0.422896      0.143144      0.128127     Biso  1.000000 O
   O15        1.0     0.694805      0.878310      0.849819     Biso  1.000000 O
   O16        1.0     0.879169      0.694807      0.575773     Biso  1.000000 O
   O17        1.0     0.576583      0.848380      0.880025     Biso  1.000000 O
   O18        1.0     0.853192      0.575841      0.695371     Biso  1.000000 O
   O19        1.0     0.575803      0.694877      0.847808     Biso  1.000000 O
   O20        1.0     0.847350      0.881247      0.576257     Biso  1.000000 O
   O21        1.0     0.693594      0.576557      0.878882     Biso  1.000000 O
   O22        1.0     0.879927      0.848324      0.693784     Biso  1.000000 O
   O23        1.0     0.872869      0.574896      0.856968     Biso  1.000000 O
   O24        1.0     0.693909      0.846166      0.577394     Biso  1.000000 O
   O25        1.0     0.854768      0.695474      0.874675     Biso  1.000000 O
   O26        1.0     0.576923      0.882945      0.693841     Biso  1.000000 O
   C1         1.0     0.406129      0.028326      0.538440     Biso  1.000000 C
   C2         1.0     0.029987      0.405305      0.026065     Biso  1.000000 C
   C3         1.0     0.542249      0.027237      0.403864     Biso  1.000000 C
   C4         1.0     0.028491      0.540620      0.026559     Biso  1.000000 C
   C5         1.0     0.538334      0.406060      0.029825     Biso  1.000000 C
   C6         1.0     0.028084      0.027196      0.405311     Biso  1.000000 C
   C7         1.0     0.403859      0.541115      0.027286     Biso  1.000000 C
   C8         1.0     0.025591      0.027925      0.541224     Biso  1.000000 C
   C9         1.0     0.027931      0.539439      0.404792     Biso  1.000000 C
   C10        1.0     0.404472      0.027240      0.027523     Biso  1.000000 C
   C11        1.0     0.026144      0.404799      0.539839     Biso  1.000000 C
   C12        1.0     0.539346      0.025645      0.029169     Biso  1.000000 C
   C13        1.0     0.594139      0.972178      0.973451     Biso  1.000000 C
   C14        1.0     0.973356      0.594088      0.459248     Biso  1.000000 C
   C15        1.0     0.459236      0.972663      0.972982     Biso  1.000000 C
   C16        1.0     0.973261      0.459284      0.594444     Biso  1.000000 C
   C17        1.0     0.458464      0.595350      0.973460     Biso  1.000000 C
   C18        1.0     0.973295      0.972992      0.459362     Biso  1.000000 C
   C19        1.0     0.593220      0.460109      0.973307     Biso  1.000000 C
   C20        1.0     0.971690      0.972809      0.595314     Biso  1.000000 C
   C21        1.0     0.974004      0.459500      0.973117     Biso  1.000000 C
   C22        1.0     0.596010      0.973194      0.458940     Biso  1.000000 C
   C23        1.0     0.973298      0.594817      0.972874     Biso  1.000000 C
   C24        1.0     0.460052      0.973204      0.593427     Biso  1.000000 C
   C25        1.0     0.390428      0.113733      0.385091     Biso  1.000000 C
   C26        1.0     0.120029      0.388899      0.105201     Biso  1.000000 C
   C27        1.0     0.385595      0.389871      0.114813     Biso  1.000000 C
   C28        1.0     0.109030      0.114840      0.389186     Biso  1.000000 C
   C29        1.0     0.109000      0.387340      0.387231     Biso  1.000000 C
   C30        1.0     0.386488      0.108296      0.116537     Biso  1.000000 C
   C31        1.0     0.612031      0.887060      0.888338     Biso  1.000000 C
   C32        1.0     0.889354      0.611883      0.611971     Biso  1.000000 C
   C33        1.0     0.611085      0.612395      0.887150     Biso  1.000000 C
   C34        1.0     0.887211      0.888302      0.611560     Biso  1.000000 C
   C35        1.0     0.887651      0.611730      0.889024     Biso  1.000000 C
   C36        1.0     0.612065      0.888167      0.611945     Biso  1.000000 C
   C37        1.0     0.447754      0.055117      0.443776     Biso  1.000000 C
   C38        1.0     0.057986      0.446374      0.051316     Biso  1.000000 C
   C39        1.0     0.444093      0.447197      0.056030     Biso  1.000000 C
   C40        1.0     0.053008      0.054972      0.446747     Biso  1.000000 C
   C41        1.0     0.052966      0.445306      0.445422     Biso  1.000000 C
   C42        1.0     0.444791      0.052300      0.056303     Biso  1.000000 C
   C43        1.0     0.553723      0.945379      0.946367     Biso  1.000000 C
   C44        1.0     0.946697      0.553668      0.553835     Biso  1.000000 C
   C45        1.0     0.552868      0.554556      0.946048     Biso  1.000000 C
   C46        1.0     0.945421      0.946237      0.553935     Biso  1.000000 C
   C47        1.0     0.946466      0.553955      0.946294     Biso  1.000000 C
   C48        1.0     0.554588      0.946358      0.553367     Biso  1.000000 C
   C49        1.0     0.305974      0.057817      0.581180     Biso  1.000000 C
   C50        1.0     0.058610      0.305357      0.055037     Biso  1.000000 C
   C51        1.0     0.585500      0.053763      0.303855     Biso  1.000000 C
   C52        1.0     0.054201      0.583160      0.058062     Biso  1.000000 C
   C53        1.0     0.579815      0.306061      0.061933     Biso  1.000000 C
   C54        1.0     0.059468      0.054355      0.305144     Biso  1.000000 C
   C55        1.0     0.303902      0.582687      0.052371     Biso  1.000000 C
   C56        1.0     0.053174      0.057588      0.583797     Biso  1.000000 C
   C57        1.0     0.060200      0.581203      0.304684     Biso  1.000000 C
   C58        1.0     0.304461      0.058639      0.054046     Biso  1.000000 C
   C59        1.0     0.053118      0.304884      0.581938     Biso  1.000000 C
   C60        1.0     0.581828      0.053612      0.058555     Biso  1.000000 C
   C61        1.0     0.694226      0.943825      0.944171     Biso  1.000000 C
   C62        1.0     0.943350      0.693905      0.416194     Biso  1.000000 C
   C63        1.0     0.416838      0.944319      0.943935     Biso  1.000000 C
   C64        1.0     0.946550      0.416505      0.694493     Biso  1.000000 C
   C65        1.0     0.415446      0.695071      0.947753     Biso  1.000000 C
   C66        1.0     0.945310      0.944147      0.416432     Biso  1.000000 C
   C67        1.0     0.693150      0.416669      0.942327     Biso  1.000000 C
   C68        1.0     0.942564      0.943855      0.695434     Biso  1.000000 C
   C69        1.0     0.944488      0.416545      0.945787     Biso  1.000000 C
   C70        1.0     0.696077      0.945734      0.416999     Biso  1.000000 C
   C71        1.0     0.945176      0.694706      0.943646     Biso  1.000000 C
   C72        1.0     0.417190      0.942875      0.693574     Biso  1.000000 C
   H1         1.0     0.284424      0.035464      0.653979     Biso  1.000000 H
   H2         1.0     0.275781      0.032789      0.563531     Biso  1.000000 H
   H3         1.0     0.275907      0.130843      0.557782     Biso  1.000000 H
   H4         1.0     0.034405      0.283626      0.028318     Biso  1.000000 H
   H5         1.0     0.034440      0.275971      0.128285     Biso  1.000000 H
   H6         1.0     0.131757      0.274632      0.034226     Biso  1.000000 H
   H7         1.0     0.658110      0.023047      0.282668     Biso  1.000000 H
   H8         1.0     0.569515      0.126472      0.272806     Biso  1.000000 H
   H9         1.0     0.560649      0.034961      0.274531     Biso  1.000000 H
   H10        1.0     0.019816      0.655085      0.041629     Biso  1.000000 H
   H11        1.0     0.126493      0.571204      0.029024     Biso  1.000000 H
   H12        1.0     0.038778      0.554546      0.130901     Biso  1.000000 H
   H13        1.0     0.651408      0.284253      0.048524     Biso  1.000000 H
   H14        1.0     0.570321      0.275476      0.030234     Biso  1.000000 H
   H15        1.0     0.548589      0.276996      0.134274     Biso  1.000000 H
   H16        1.0     0.042465      0.021164      0.283251     Biso  1.000000 H
   H17        1.0     0.132282      0.039175      0.275625     Biso  1.000000 H
   H18        1.0     0.030462      0.126716      0.274779     Biso  1.000000 H
   H19        1.0     0.282707      0.653604      0.013836     Biso  1.000000 H
   H20        1.0     0.271970      0.575292      0.123880     Biso  1.000000 H
   H21        1.0     0.275936      0.549800      0.041314     Biso  1.000000 H
   H22        1.0     0.022127      0.037606      0.656419     Biso  1.000000 H
   H23        1.0     0.035882      0.130491      0.558219     Biso  1.000000 H
   H24        1.0     0.125976      0.030435      0.568080     Biso  1.000000 H
   H25        1.0     0.046396      0.652732      0.283279     Biso  1.000000 H
   H26        1.0     0.029199      0.571500      0.273639     Biso  1.000000 H
   H27        1.0     0.132671      0.550519      0.275693     Biso  1.000000 H
   H28        1.0     0.283010      0.041371      0.020694     Biso  1.000000 H
   H29        1.0     0.275414      0.131401      0.038295     Biso  1.000000 H
   H30        1.0     0.273242      0.030239      0.126538     Biso  1.000000 H
   H31        1.0     0.020036      0.283243      0.654322     Biso  1.000000 H
   H32        1.0     0.125686      0.274525      0.568296     Biso  1.000000 H
   H33        1.0     0.037431      0.275306      0.554509     Biso  1.000000 H
   H34        1.0     0.654507      0.023785      0.037105     Biso  1.000000 H
   H35        1.0     0.557248      0.035398      0.131647     Biso  1.000000 H
   H36        1.0     0.565296      0.126436      0.032162     Biso  1.000000 H
   H37        1.0     0.715756      0.966779      0.972324     Biso  1.000000 H
   H38        1.0     0.723732      0.969296      0.871085     Biso  1.000000 H
   H39        1.0     0.725042      0.870813      0.963418     Biso  1.000000 H
   H40        1.0     0.963688      0.714576      0.343597     Biso  1.000000 H
   H41        1.0     0.969710      0.724993      0.431331     Biso  1.000000 H
   H42        1.0     0.870227      0.723536      0.441663     Biso  1.000000 H
   H43        1.0     0.344032      0.972724      0.967015     Biso  1.000000 H
   H44        1.0     0.434671      0.871457      0.969362     Biso  1.000000 H
   H45        1.0     0.440215      0.963735      0.870720     Biso  1.000000 H
   H46        1.0     0.976668      0.343929      0.715400     Biso  1.000000 H
   H47        1.0     0.873643      0.433058      0.725821     Biso  1.000000 H
   H48        1.0     0.966051      0.440665      0.723838     Biso  1.000000 H
   H49        1.0     0.343124      0.715215      0.981741     Biso  1.000000 H
   H50        1.0     0.428652      0.726738      0.875258     Biso  1.000000 H
   H51        1.0     0.442466      0.724145      0.964474     Biso  1.000000 H
   H52        1.0     0.974759      0.966293      0.343644     Biso  1.000000 H
   H53        1.0     0.872394      0.970337      0.433566     Biso  1.000000 H
   H54        1.0     0.963906      0.871139      0.440250     Biso  1.000000 H
   H55        1.0     0.713339      0.344329      0.961904     Biso  1.000000 H
   H56        1.0     0.724776      0.430785      0.969049     Biso  1.000000 H
   H57        1.0     0.722763      0.442451      0.869209     Biso  1.000000 H
   H58        1.0     0.964552      0.972814      0.717088     Biso  1.000000 H
   H59        1.0     0.968788      0.871001      0.724722     Biso  1.000000 H
   H60        1.0     0.869433      0.962470      0.726137     Biso  1.000000 H
   H61        1.0     0.968597      0.343863      0.973064     Biso  1.000000 H
   H62        1.0     0.967977      0.435560      0.872703     Biso  1.000000 H
   H63        1.0     0.871266      0.438498      0.967322     Biso  1.000000 H
   H64        1.0     0.718008      0.977530      0.344480     Biso  1.000000 H
   H65        1.0     0.726409      0.873138      0.431722     Biso  1.000000 H
   H66        1.0     0.725280      0.962767      0.443612     Biso  1.000000 H
   H67        1.0     0.974051      0.716031      0.966022     Biso  1.000000 H
   H68        1.0     0.872174      0.725091      0.968495     Biso  1.000000 H
   H69        1.0     0.965230      0.724451      0.870419     Biso  1.000000 H
   H70        1.0     0.344690      0.962186      0.715198     Biso  1.000000 H
   H71        1.0     0.431862      0.970258      0.724073     Biso  1.000000 H
   H72        1.0     0.443232      0.869968      0.723253     Biso  1.000000 H
