#======================================================================

# CRYSTAL DATA

#----------------------------------------------------------------------

data_VESTA_phase_1


_pd_phase_name                         'irmof-20                              '
_cell_length_a                         29.25753
_cell_length_b                         29.25740
_cell_length_c                         29.25637
_cell_angle_alpha                      90.00174
_cell_angle_beta                       90.17493
_cell_angle_gamma                      89.99879
_symmetry_space_group_name_H-M         'P 1'
_symmetry_Int_Tables_number            1

loop_
_symmetry_equiv_pos_as_xyz
   'x, y, z'

loop_
   _atom_site_label
   _atom_site_occupancy
   _atom_site_fract_x
   _atom_site_fract_y
   _atom_site_fract_z
   _atom_site_adp_type
   _atom_site_B_iso_or_equiv
   _atom_site_type_symbol
   Zn1        1.0     0.288376      0.288517      0.211594     Biso  1.000000 Zn
   Zn2        1.0     0.288423      0.788351      0.711600     Biso  1.000000 Zn
   Zn3        1.0     0.788258      0.288378      0.711592     Biso  1.000000 Zn
   Zn4        1.0     0.788237      0.788400      0.211595     Biso  1.000000 Zn
   Zn5        1.0     0.711585      0.288301      0.211434     Biso  1.000000 Zn
   Zn6        1.0     0.711574      0.788319      0.711582     Biso  1.000000 Zn
   Zn7        1.0     0.211425      0.288416      0.711579     Biso  1.000000 Zn
   Zn8        1.0     0.211416      0.788276      0.211441     Biso  1.000000 Zn
   Zn9        1.0     0.711562      0.711553      0.211603     Biso  1.000000 Zn
   Zn10       1.0     0.711581      0.211534      0.711601     Biso  1.000000 Zn
   Zn11       1.0     0.211428      0.711698      0.711591     Biso  1.000000 Zn
   Zn12       1.0     0.211425      0.211585      0.211578     Biso  1.000000 Zn
   Zn13       1.0     0.288413      0.711616      0.211749     Biso  1.000000 Zn
   Zn14       1.0     0.288378      0.211483      0.711591     Biso  1.000000 Zn
   Zn15       1.0     0.788243      0.711447      0.711621     Biso  1.000000 Zn
   Zn16       1.0     0.788253      0.211437      0.211769     Biso  1.000000 Zn
   Zn17       1.0     0.288399      0.788471      0.288415     Biso  1.000000 Zn
   Zn18       1.0     0.288443      0.288311      0.788406     Biso  1.000000 Zn
   Zn19       1.0     0.788590      0.788421      0.788403     Biso  1.000000 Zn
   Zn20       1.0     0.788573      0.288434      0.288403     Biso  1.000000 Zn
   Zn21       1.0     0.288406      0.711561      0.788567     Biso  1.000000 Zn
   Zn22       1.0     0.288444      0.211688      0.288402     Biso  1.000000 Zn
   Zn23       1.0     0.788576      0.711712      0.288423     Biso  1.000000 Zn
   Zn24       1.0     0.788569      0.211727      0.788577     Biso  1.000000 Zn
   Zn25       1.0     0.711597      0.288526      0.788240     Biso  1.000000 Zn
   Zn26       1.0     0.711607      0.788522      0.288390     Biso  1.000000 Zn
   Zn27       1.0     0.211744      0.288397      0.288393     Biso  1.000000 Zn
   Zn28       1.0     0.211768      0.788566      0.788248     Biso  1.000000 Zn
   Zn29       1.0     0.711614      0.711631      0.788416     Biso  1.000000 Zn
   Zn30       1.0     0.711591      0.211652      0.288416     Biso  1.000000 Zn
   Zn31       1.0     0.211758      0.711468      0.288394     Biso  1.000000 Zn
   Zn32       1.0     0.211745      0.211605      0.788392     Biso  1.000000 Zn
   O1         1.0     0.250000      0.250041      0.249943     Biso  1.000000 O
   O2         1.0     0.250031      0.750014      0.750000     Biso  1.000000 O
   O3         1.0     0.750002      0.250011      0.750027     Biso  1.000000 O
   O4         1.0     0.749971      0.750042      0.250029     Biso  1.000000 O
   O5         1.0     0.750000      0.249985      0.250031     Biso  1.000000 O
   O6         1.0     0.750027      0.749960      0.750028     Biso  1.000000 O
   O7         1.0     0.250000      0.249959      0.749943     Biso  1.000000 O
   O8         1.0     0.249972      0.749988      0.249999     Biso  1.000000 O
   O9         1.0     0.277387      0.352991      0.222663     Biso  1.000000 O
   O10        1.0     0.277668      0.852935      0.722334     Biso  1.000000 O
   O11        1.0     0.777673      0.352974      0.722302     Biso  1.000000 O
   O12        1.0     0.777689      0.852988      0.222302     Biso  1.000000 O
   O13        1.0     0.647004      0.277678      0.222197     Biso  1.000000 O
   O14        1.0     0.646970      0.777704      0.722199     Biso  1.000000 O
   O15        1.0     0.146943      0.277401      0.722509     Biso  1.000000 O
   O16        1.0     0.146939      0.777392      0.222471     Biso  1.000000 O
   O17        1.0     0.722503      0.647005      0.222482     Biso  1.000000 O
   O18        1.0     0.722480      0.146999      0.722483     Biso  1.000000 O
   O19        1.0     0.222250      0.647097      0.722287     Biso  1.000000 O
   O20        1.0     0.222495      0.147054      0.222533     Biso  1.000000 O
   O21        1.0     0.352965      0.722521      0.222647     Biso  1.000000 O
   O22        1.0     0.352895      0.222536      0.722701     Biso  1.000000 O
   O23        1.0     0.852845      0.722248      0.722380     Biso  1.000000 O
   O24        1.0     0.852877      0.222235      0.222369     Biso  1.000000 O
   O25        1.0     0.277810      0.777660      0.352993     Biso  1.000000 O
   O26        1.0     0.277809      0.277670      0.853016     Biso  1.000000 O
   O27        1.0     0.777779      0.777665      0.852958     Biso  1.000000 O
   O28        1.0     0.777787      0.277660      0.352958     Biso  1.000000 O
   O29        1.0     0.277480      0.647036      0.777514     Biso  1.000000 O
   O30        1.0     0.277724      0.147066      0.277758     Biso  1.000000 O
   O31        1.0     0.777730      0.647103      0.277708     Biso  1.000000 O
   O32        1.0     0.777715      0.147141      0.777706     Biso  1.000000 O
   O33        1.0     0.277344      0.222521      0.647087     Biso  1.000000 O
   O34        1.0     0.277617      0.722226      0.147128     Biso  1.000000 O
   O35        1.0     0.777608      0.222237      0.147140     Biso  1.000000 O
   O36        1.0     0.777306      0.722526      0.647078     Biso  1.000000 O
   O37        1.0     0.222497      0.352948      0.722535     Biso  1.000000 O
   O38        1.0     0.222290      0.852863      0.222290     Biso  1.000000 O
   O39        1.0     0.722285      0.352901      0.222257     Biso  1.000000 O
   O40        1.0     0.722268      0.852946      0.722244     Biso  1.000000 O
   O41        1.0     0.722602      0.353021      0.777347     Biso  1.000000 O
   O42        1.0     0.722616      0.852997      0.277347     Biso  1.000000 O
   O43        1.0     0.222310      0.352982      0.277705     Biso  1.000000 O
   O44        1.0     0.222603      0.853075      0.777385     Biso  1.000000 O
   O45        1.0     0.777527      0.352958      0.277471     Biso  1.000000 O
   O46        1.0     0.777494      0.852954      0.777471     Biso  1.000000 O
   O47        1.0     0.277722      0.352934      0.777763     Biso  1.000000 O
   O48        1.0     0.277524      0.853008      0.277515     Biso  1.000000 O
   O49        1.0     0.222667      0.277467      0.352952     Biso  1.000000 O
   O50        1.0     0.222370      0.777763      0.852872     Biso  1.000000 O
   O51        1.0     0.722399      0.277768      0.852841     Biso  1.000000 O
   O52        1.0     0.722692      0.777484      0.352903     Biso  1.000000 O
   O53        1.0     0.353038      0.222304      0.277829     Biso  1.000000 O
   O54        1.0     0.352962      0.722331      0.777783     Biso  1.000000 O
   O55        1.0     0.853053      0.222608      0.777502     Biso  1.000000 O
   O56        1.0     0.853081      0.722586      0.277502     Biso  1.000000 O
   O57        1.0     0.647095      0.777468      0.277333     Biso  1.000000 O
   O58        1.0     0.647062      0.277475      0.777338     Biso  1.000000 O
   O59        1.0     0.147138      0.777768      0.777602     Biso  1.000000 O
   O60        1.0     0.147122      0.277756      0.277644     Biso  1.000000 O
   O61        1.0     0.222198      0.722325      0.647009     Biso  1.000000 O
   O62        1.0     0.222191      0.222338      0.147031     Biso  1.000000 O
   O63        1.0     0.722214      0.722339      0.147016     Biso  1.000000 O
   O64        1.0     0.722210      0.222342      0.647014     Biso  1.000000 O
   O65        1.0     0.647003      0.222339      0.722184     Biso  1.000000 O
   O66        1.0     0.646992      0.722318      0.222191     Biso  1.000000 O
   O67        1.0     0.146944      0.222602      0.222510     Biso  1.000000 O
   O68        1.0     0.146924      0.722616      0.722469     Biso  1.000000 O
   O69        1.0     0.777825      0.722326      0.352995     Biso  1.000000 O
   O70        1.0     0.777543      0.222621      0.853056     Biso  1.000000 O
   O71        1.0     0.277524      0.722631      0.853050     Biso  1.000000 O
   O72        1.0     0.277811      0.222331      0.353013     Biso  1.000000 O
   O73        1.0     0.777365      0.277468      0.647039     Biso  1.000000 O
   O74        1.0     0.777366      0.777468      0.147041     Biso  1.000000 O
   O75        1.0     0.277342      0.277479      0.147089     Biso  1.000000 O
   O76        1.0     0.277322      0.777485      0.647068     Biso  1.000000 O
   O77        1.0     0.352947      0.777483      0.722646     Biso  1.000000 O
   O78        1.0     0.352894      0.277466      0.222704     Biso  1.000000 O
   O79        1.0     0.852866      0.777755      0.222389     Biso  1.000000 O
   O80        1.0     0.852879      0.277775      0.722382     Biso  1.000000 O
   O81        1.0     0.353038      0.277694      0.777832     Biso  1.000000 O
   O82        1.0     0.352985      0.777666      0.277788     Biso  1.000000 O
   O83        1.0     0.853055      0.277370      0.277522     Biso  1.000000 O
   O84        1.0     0.853067      0.777401      0.777518     Biso  1.000000 O
   O85        1.0     0.647076      0.722535      0.777311     Biso  1.000000 O
   O86        1.0     0.647061      0.222514      0.277318     Biso  1.000000 O
   O87        1.0     0.147156      0.722224      0.277593     Biso  1.000000 O
   O88        1.0     0.147123      0.222252      0.777646     Biso  1.000000 O
   O89        1.0     0.722634      0.222523      0.352940     Biso  1.000000 O
   O90        1.0     0.722634      0.722522      0.852941     Biso  1.000000 O
   O91        1.0     0.222666      0.222535      0.852953     Biso  1.000000 O
   O92        1.0     0.222663      0.722523      0.352929     Biso  1.000000 O
   O93        1.0     0.722168      0.777671      0.646978     Biso  1.000000 O
   O94        1.0     0.722459      0.277373      0.146929     Biso  1.000000 O
   O95        1.0     0.222493      0.777389      0.146954     Biso  1.000000 O
   O96        1.0     0.222192      0.277664      0.647031     Biso  1.000000 O
   O97        1.0     0.222644      0.646971      0.277383     Biso  1.000000 O
   O98        1.0     0.222313      0.147018      0.777703     Biso  1.000000 O
   O99        1.0     0.722313      0.647056      0.777663     Biso  1.000000 O
   O100       1.0     0.722329      0.147070      0.277661     Biso  1.000000 O
   O101       1.0     0.777380      0.646959      0.722611     Biso  1.000000 O
   O102       1.0     0.777395      0.146930      0.222611     Biso  1.000000 O
   O103       1.0     0.277706      0.647018      0.222329     Biso  1.000000 O
   O104       1.0     0.277388      0.147009      0.722659     Biso  1.000000 O
   C1         1.0     0.249796      0.372465      0.250226     Biso  1.000000 C
   C2         1.0     0.250214      0.872488      0.749781     Biso  1.000000 C
   C3         1.0     0.750201      0.372480      0.749776     Biso  1.000000 C
   C4         1.0     0.750202      0.872471      0.249782     Biso  1.000000 C
   C5         1.0     0.627548      0.250181      0.249710     Biso  1.000000 C
   C6         1.0     0.627534      0.750188      0.749717     Biso  1.000000 C
   C7         1.0     0.127551      0.249784      0.750137     Biso  1.000000 C
   C8         1.0     0.127568      0.749769      0.250114     Biso  1.000000 C
   C9         1.0     0.750177      0.627562      0.250169     Biso  1.000000 C
   C10        1.0     0.750175      0.127585      0.750175     Biso  1.000000 C
   C11        1.0     0.249818      0.627581      0.749832     Biso  1.000000 C
   C12        1.0     0.250158      0.127569      0.250186     Biso  1.000000 C
   C13        1.0     0.372464      0.750184      0.250278     Biso  1.000000 C
   C14        1.0     0.372451      0.250176      0.750292     Biso  1.000000 C
   C15        1.0     0.872435      0.749776      0.749874     Biso  1.000000 C
   C16        1.0     0.872449      0.249769      0.249876     Biso  1.000000 C
   C17        1.0     0.250283      0.750174      0.372445     Biso  1.000000 C
   C18        1.0     0.250284      0.250186      0.872479     Biso  1.000000 C
   C19        1.0     0.750270      0.750183      0.872429     Biso  1.000000 C
   C20        1.0     0.750273      0.250182      0.372428     Biso  1.000000 C
   C21        1.0     0.249719      0.250177      0.627583     Biso  1.000000 C
   C22        1.0     0.250121      0.749772      0.127558     Biso  1.000000 C
   C23        1.0     0.750115      0.249767      0.127547     Biso  1.000000 C
   C24        1.0     0.749706      0.750175      0.627538     Biso  1.000000 C
   C25        1.0     0.250158      0.372432      0.750191     Biso  1.000000 C
   C26        1.0     0.249830      0.872421      0.249821     Biso  1.000000 C
   C27        1.0     0.749842      0.372416      0.249814     Biso  1.000000 C
   C28        1.0     0.749834      0.872442      0.749817     Biso  1.000000 C
   C29        1.0     0.250285      0.249816      0.372477     Biso  1.000000 C
   C30        1.0     0.249879      0.750230      0.872444     Biso  1.000000 C
   C31        1.0     0.749889      0.250233      0.872428     Biso  1.000000 C
   C32        1.0     0.750292      0.749827      0.372428     Biso  1.000000 C
   C33        1.0     0.372451      0.249823      0.250292     Biso  1.000000 C
   C34        1.0     0.372433      0.749815      0.750277     Biso  1.000000 C
   C35        1.0     0.872448      0.250224      0.749875     Biso  1.000000 C
   C36        1.0     0.872461      0.750219      0.249872     Biso  1.000000 C
   C37        1.0     0.627564      0.749824      0.249722     Biso  1.000000 C
   C38        1.0     0.627548      0.249824      0.749714     Biso  1.000000 C
   C39        1.0     0.127544      0.750232      0.750117     Biso  1.000000 C
   C40        1.0     0.127550      0.250221      0.250138     Biso  1.000000 C
   C41        1.0     0.249713      0.749821      0.627554     Biso  1.000000 C
   C42        1.0     0.249718      0.249823      0.127584     Biso  1.000000 C
   C43        1.0     0.749729      0.749813      0.127539     Biso  1.000000 C
   C44        1.0     0.749727      0.249814      0.627537     Biso  1.000000 C
   C45        1.0     0.250220      0.627511      0.249789     Biso  1.000000 C
   C46        1.0     0.249800      0.127535      0.750222     Biso  1.000000 C
   C47        1.0     0.749782      0.627528      0.750211     Biso  1.000000 C
   C48        1.0     0.749784      0.127516      0.250218     Biso  1.000000 C
   C49        1.0     0.249951      0.422507      0.250053     Biso  1.000000 C
   C50        1.0     0.250065      0.922527      0.749922     Biso  1.000000 C
   C51        1.0     0.750057      0.422519      0.749952     Biso  1.000000 C
   C52        1.0     0.750044      0.922514      0.249956     Biso  1.000000 C
   C53        1.0     0.577499      0.250071      0.249892     Biso  1.000000 C
   C54        1.0     0.577489      0.750062      0.749902     Biso  1.000000 C
   C55        1.0     0.077500      0.249957      0.749993     Biso  1.000000 C
   C56        1.0     0.077512      0.749956      0.249999     Biso  1.000000 C
   C57        1.0     0.750023      0.577505      0.250042     Biso  1.000000 C
   C58        1.0     0.750040      0.077529      0.750047     Biso  1.000000 C
   C59        1.0     0.249985      0.577521      0.749952     Biso  1.000000 C
   C60        1.0     0.250010      0.077513      0.250022     Biso  1.000000 C
   C61        1.0     0.422509      0.750069      0.250109     Biso  1.000000 C
   C62        1.0     0.422500      0.250051      0.750097     Biso  1.000000 C
   C63        1.0     0.922491      0.749950      0.750003     Biso  1.000000 C
   C64        1.0     0.922500      0.249957      0.250001     Biso  1.000000 C
   C65        1.0     0.250104      0.750058      0.422496     Biso  1.000000 C
   C66        1.0     0.250099      0.250072      0.922520     Biso  1.000000 C
   C67        1.0     0.750109      0.750065      0.922483     Biso  1.000000 C
   C68        1.0     0.750109      0.250065      0.422482     Biso  1.000000 C
   C69        1.0     0.249894      0.250061      0.577525     Biso  1.000000 C
   C70        1.0     0.249991      0.749957      0.077504     Biso  1.000000 C
   C71        1.0     0.749998      0.249957      0.077497     Biso  1.000000 C
   C72        1.0     0.749904      0.750067      0.577489     Biso  1.000000 C
   C73        1.0     0.250013      0.422488      0.750028     Biso  1.000000 C
   C74        1.0     0.249963      0.922479      0.249949     Biso  1.000000 C
   C75        1.0     0.749972      0.422473      0.249976     Biso  1.000000 C
   C76        1.0     0.749982      0.922499      0.749981     Biso  1.000000 C
   C77        1.0     0.250099      0.249929      0.422519     Biso  1.000000 C
   C78        1.0     0.250008      0.750043      0.922498     Biso  1.000000 C
   C79        1.0     0.750005      0.250045      0.922486     Biso  1.000000 C
   C80        1.0     0.750101      0.749941      0.422483     Biso  1.000000 C
   C81        1.0     0.422500      0.249948      0.250097     Biso  1.000000 C
   C82        1.0     0.422486      0.749929      0.750114     Biso  1.000000 C
   C83        1.0     0.922500      0.250038      0.750004     Biso  1.000000 C
   C84        1.0     0.922508      0.750043      0.250002     Biso  1.000000 C
   C85        1.0     0.577511      0.749953      0.249902     Biso  1.000000 C
   C86        1.0     0.577499      0.249937      0.749892     Biso  1.000000 C
   C87        1.0     0.077496      0.750043      0.750001     Biso  1.000000 C
   C88        1.0     0.077500      0.250047      0.249994     Biso  1.000000 C
   C89        1.0     0.249895      0.749933      0.577503     Biso  1.000000 C
   C90        1.0     0.249894      0.249938      0.077527     Biso  1.000000 C
   C91        1.0     0.749895      0.749931      0.077492     Biso  1.000000 C
   C92        1.0     0.749894      0.249931      0.577490     Biso  1.000000 C
   C93        1.0     0.250044      0.577471      0.249929     Biso  1.000000 C
   C94        1.0     0.249957      0.077493      0.750047     Biso  1.000000 C
   C95        1.0     0.749945      0.577485      0.750069     Biso  1.000000 C
   C96        1.0     0.749934      0.077478      0.250074     Biso  1.000000 C
   C97        1.0     0.223407      0.451080      0.276606     Biso  1.000000 C
   C98        1.0     0.049026      0.223394      0.776624     Biso  1.000000 C
   C99        1.0     0.049039      0.723389      0.276625     Biso  1.000000 C
   C100       1.0     0.776651      0.548930      0.276659     Biso  1.000000 C
   C101       1.0     0.776661      0.048956      0.776669     Biso  1.000000 C
   C102       1.0     0.276643      0.048944      0.276650     Biso  1.000000 C
   C103       1.0     0.451189      0.776660      0.276660     Biso  1.000000 C
   C104       1.0     0.451176      0.276648      0.776660     Biso  1.000000 C
   C105       1.0     0.223352      0.548947      0.723334     Biso  1.000000 C
   C106       1.0     0.223328      0.276649      0.548850     Biso  1.000000 C
   C107       1.0     0.723345      0.776658      0.548808     Biso  1.000000 C
   C108       1.0     0.276647      0.451060      0.776651     Biso  1.000000 C
   C109       1.0     0.776596      0.451091      0.723397     Biso  1.000000 C
   C110       1.0     0.776588      0.951082      0.223399     Biso  1.000000 C
   C111       1.0     0.276604      0.951101      0.723380     Biso  1.000000 C
   C112       1.0     0.723346      0.451040      0.223344     Biso  1.000000 C
   C113       1.0     0.723352      0.951069      0.723350     Biso  1.000000 C
   C114       1.0     0.223341      0.951052      0.223328     Biso  1.000000 C
   C115       1.0     0.276658      0.223343      0.451199     Biso  1.000000 C
   C116       1.0     0.776668      0.723353      0.451159     Biso  1.000000 C
   C117       1.0     0.950974      0.276602      0.723373     Biso  1.000000 C
   C118       1.0     0.950984      0.776606      0.223376     Biso  1.000000 C
   C119       1.0     0.548840      0.723353      0.223340     Biso  1.000000 C
   C120       1.0     0.548821      0.223343      0.723337     Biso  1.000000 C
   C121       1.0     0.049023      0.276614      0.276620     Biso  1.000000 C
   C122       1.0     0.049016      0.776617      0.776616     Biso  1.000000 C
   C123       1.0     0.723380      0.276614      0.950960     Biso  1.000000 C
   C124       1.0     0.223389      0.776618      0.950975     Biso  1.000000 C
   C125       1.0     0.723341      0.223341      0.548811     Biso  1.000000 C
   C126       1.0     0.723342      0.723341      0.048811     Biso  1.000000 C
   C127       1.0     0.223327      0.223352      0.048850     Biso  1.000000 C
   C128       1.0     0.223332      0.723346      0.548823     Biso  1.000000 C
   C129       1.0     0.451164      0.723346      0.776678     Biso  1.000000 C
   C130       1.0     0.451177      0.223357      0.276665     Biso  1.000000 C
   C131       1.0     0.950978      0.223382      0.223383     Biso  1.000000 C
   C132       1.0     0.950965      0.723380      0.723379     Biso  1.000000 C
   C133       1.0     0.548808      0.776649      0.723337     Biso  1.000000 C
   C134       1.0     0.548820      0.276652      0.223328     Biso  1.000000 C
   C135       1.0     0.776673      0.276651      0.451159     Biso  1.000000 C
   C136       1.0     0.776672      0.776651      0.951160     Biso  1.000000 C
   C137       1.0     0.276659      0.276656      0.951202     Biso  1.000000 C
   C138       1.0     0.276661      0.776652      0.451174     Biso  1.000000 C
   C139       1.0     0.776613      0.223383      0.049018     Biso  1.000000 C
   C140       1.0     0.276620      0.723391      0.049028     Biso  1.000000 C
   C141       1.0     0.276596      0.548895      0.223391     Biso  1.000000 C
   C142       1.0     0.723403      0.548914      0.776618     Biso  1.000000 C
   C143       1.0     0.723396      0.048904      0.276618     Biso  1.000000 C
   C144       1.0     0.223413      0.048924      0.776604     Biso  1.000000 C
   C145       1.0     0.266920      0.502834      0.233068     Biso  1.000000 C
   C146       1.0     0.266923      0.997163      0.733064     Biso  1.000000 C
   C147       1.0     0.766923      0.497151      0.733079     Biso  1.000000 C
   C148       1.0     0.766919      0.997141      0.233078     Biso  1.000000 C
   C149       1.0     0.502782      0.266957      0.233046     Biso  1.000000 C
   C150       1.0     0.502773      0.766958      0.733055     Biso  1.000000 C
   C151       1.0     0.997080      0.266931      0.733036     Biso  1.000000 C
   C152       1.0     0.997090      0.766934      0.233041     Biso  1.000000 C
   C153       1.0     0.733021      0.497119      0.233029     Biso  1.000000 C
   C154       1.0     0.733030      0.997148      0.733033     Biso  1.000000 C
   C155       1.0     0.233026      0.502867      0.733019     Biso  1.000000 C
   C156       1.0     0.233022      0.997133      0.233018     Biso  1.000000 C
   C157       1.0     0.502805      0.733052      0.233050     Biso  1.000000 C
   C158       1.0     0.502783      0.233040      0.733050     Biso  1.000000 C
   C159       1.0     0.997070      0.733058      0.733045     Biso  1.000000 C
   C160       1.0     0.997083      0.233064      0.233038     Biso  1.000000 C
   C161       1.0     0.266948      0.766953      0.497212     Biso  1.000000 C
   C162       1.0     0.266941      0.266967      0.997242     Biso  1.000000 C
   C163       1.0     0.766955      0.766948      0.997195     Biso  1.000000 C
   C164       1.0     0.766955      0.266946      0.497195     Biso  1.000000 C
   C165       1.0     0.266977      0.497141      0.766967     Biso  1.000000 C
   C166       1.0     0.266968      0.002864      0.266968     Biso  1.000000 C
   C167       1.0     0.766971      0.502849      0.266977     Biso  1.000000 C
   C168       1.0     0.766977      0.002877      0.766983     Biso  1.000000 C
   C169       1.0     0.266942      0.233032      0.497239     Biso  1.000000 C
   C170       1.0     0.266960      0.733064      0.002920     Biso  1.000000 C
   C171       1.0     0.766957      0.233062      0.002910     Biso  1.000000 C
   C172       1.0     0.766956      0.733053      0.497196     Biso  1.000000 C
   C173       1.0     0.733082      0.502855      0.766935     Biso  1.000000 C
   C174       1.0     0.733077      0.002843      0.266935     Biso  1.000000 C
   C175       1.0     0.233075      0.497138      0.266922     Biso  1.000000 C
   C176       1.0     0.233081      0.002866      0.766921     Biso  1.000000 C
   C177       1.0     0.233043      0.266944      0.502816     Biso  1.000000 C
   C178       1.0     0.233044      0.766939      0.997082     Biso  1.000000 C
   C179       1.0     0.733043      0.266939      0.997068     Biso  1.000000 C
   C180       1.0     0.733057      0.766965      0.502769     Biso  1.000000 C
   C181       1.0     0.497213      0.233051      0.266952     Biso  1.000000 C
   C182       1.0     0.497199      0.733052      0.766960     Biso  1.000000 C
   C183       1.0     0.002920      0.233065      0.766960     Biso  1.000000 C
   C184       1.0     0.002933      0.733063      0.266960     Biso  1.000000 C
   C185       1.0     0.497228      0.766968      0.266945     Biso  1.000000 C
   C186       1.0     0.497211      0.266955      0.766948     Biso  1.000000 C
   C187       1.0     0.002911      0.766936      0.766959     Biso  1.000000 C
   C188       1.0     0.002918      0.266939      0.266958     Biso  1.000000 C
   C189       1.0     0.233050      0.733042      0.502786     Biso  1.000000 C
   C190       1.0     0.233043      0.233056      0.002816     Biso  1.000000 C
   C191       1.0     0.733057      0.733037      0.002773     Biso  1.000000 C
   C192       1.0     0.733056      0.233036      0.502771     Biso  1.000000 C
   H1         1.0     0.198764      0.438026      0.301286     Biso  1.000000 H
   H2         1.0     0.062180      0.198722      0.801341     Biso  1.000000 H
   H3         1.0     0.062196      0.698698      0.301323     Biso  1.000000 H
   H4         1.0     0.801407      0.561988      0.301380     Biso  1.000000 H
   H5         1.0     0.801401      0.062013      0.801409     Biso  1.000000 H
   H6         1.0     0.301378      0.062003      0.301389     Biso  1.000000 H
   H7         1.0     0.438234      0.801381      0.301354     Biso  1.000000 H
   H8         1.0     0.438225      0.301357      0.801366     Biso  1.000000 H
   H9         1.0     0.198592      0.562000      0.698615     Biso  1.000000 H
   H10        1.0     0.198627      0.301362      0.561806     Biso  1.000000 H
   H11        1.0     0.698636      0.801361      0.561762     Biso  1.000000 H
   H12        1.0     0.301381      0.438005      0.801393     Biso  1.000000 H
   H13        1.0     0.801236      0.438030      0.698716     Biso  1.000000 H
   H14        1.0     0.801231      0.938020      0.198720     Biso  1.000000 H
   H15        1.0     0.301265      0.938041      0.698718     Biso  1.000000 H
   H16        1.0     0.698627      0.437981      0.198587     Biso  1.000000 H
   H17        1.0     0.698619      0.938009      0.698610     Biso  1.000000 H
   H18        1.0     0.198600      0.937998      0.198589     Biso  1.000000 H
   H19        1.0     0.301366      0.198640      0.438243     Biso  1.000000 H
   H20        1.0     0.801384      0.698655      0.438207     Biso  1.000000 H
   H21        1.0     0.937821      0.301280      0.698662     Biso  1.000000 H
   H22        1.0     0.937830      0.801280      0.198661     Biso  1.000000 H
   H23        1.0     0.561795      0.698627      0.198652     Biso  1.000000 H
   H24        1.0     0.561773      0.198620      0.698645     Biso  1.000000 H
   H25        1.0     0.062174      0.301291      0.301335     Biso  1.000000 H
   H26        1.0     0.062169      0.801325      0.801299     Biso  1.000000 H
   H27        1.0     0.698684      0.301307      0.937804     Biso  1.000000 H
   H28        1.0     0.198705      0.801323      0.937822     Biso  1.000000 H
   H29        1.0     0.698650      0.198623      0.561770     Biso  1.000000 H
   H30        1.0     0.698653      0.698620      0.061771     Biso  1.000000 H
   H31        1.0     0.198628      0.198639      0.061804     Biso  1.000000 H
   H32        1.0     0.198614      0.698653      0.561777     Biso  1.000000 H
   H33        1.0     0.438212      0.698639      0.801385     Biso  1.000000 H
   H34        1.0     0.438227      0.198652      0.301372     Biso  1.000000 H
   H35        1.0     0.937829      0.198673      0.198700     Biso  1.000000 H
   H36        1.0     0.937808      0.698692      0.698678     Biso  1.000000 H
   H37        1.0     0.561762      0.801350      0.698628     Biso  1.000000 H
   H38        1.0     0.561768      0.301341      0.198603     Biso  1.000000 H
   H39        1.0     0.801373      0.301362      0.438202     Biso  1.000000 H
   H40        1.0     0.801370      0.801364      0.938203     Biso  1.000000 H
   H41        1.0     0.301366      0.301360      0.938249     Biso  1.000000 H
   H42        1.0     0.301348      0.801376      0.438219     Biso  1.000000 H
   H43        1.0     0.801297      0.198678      0.062172     Biso  1.000000 H
   H44        1.0     0.301330      0.698711      0.062181     Biso  1.000000 H
   H45        1.0     0.301274      0.561950      0.198747     Biso  1.000000 H
   H46        1.0     0.698737      0.561975      0.801275     Biso  1.000000 H
   H47        1.0     0.698735      0.061966      0.301279     Biso  1.000000 H
   H48        1.0     0.198770      0.061985      0.801282     Biso  1.000000 H
   S1         1.0     0.286471      0.451103      0.213524     Biso  1.000000 S
   S2         1.0     0.048740      0.286513      0.713421     Biso  1.000000 S
   S3         1.0     0.048750      0.786506      0.213418     Biso  1.000000 S
   S4         1.0     0.713397      0.548847      0.213409     Biso  1.000000 S
   S5         1.0     0.713410      0.048878      0.713412     Biso  1.000000 S
   S6         1.0     0.213384      0.048857      0.213400     Biso  1.000000 S
   S7         1.0     0.450992      0.713472      0.213519     Biso  1.000000 S
   S8         1.0     0.450976      0.213462      0.713509     Biso  1.000000 S
   S9         1.0     0.286602      0.548868      0.786591     Biso  1.000000 S
   S10        1.0     0.286492      0.213471      0.549051     Biso  1.000000 S
   S11        1.0     0.786488      0.713472      0.549008     Biso  1.000000 S
   S12        1.0     0.213383      0.451141      0.713406     Biso  1.000000 S
   S13        1.0     0.713531      0.451125      0.786475     Biso  1.000000 S
   S14        1.0     0.713529      0.951116      0.286485     Biso  1.000000 S
   S15        1.0     0.213541      0.951129      0.786462     Biso  1.000000 S
   S16        1.0     0.786607      0.451126      0.286596     Biso  1.000000 S
   S17        1.0     0.786610      0.951154      0.786602     Biso  1.000000 S
   S18        1.0     0.286591      0.951134      0.286587     Biso  1.000000 S
   S19        1.0     0.213508      0.286519      0.451002     Biso  1.000000 S
   S20        1.0     0.713505      0.786528      0.450957     Biso  1.000000 S
   S21        1.0     0.951261      0.213494      0.786588     Biso  1.000000 S
   S22        1.0     0.951271      0.713488      0.286577     Biso  1.000000 S
   S23        1.0     0.549034      0.786546      0.286487     Biso  1.000000 S
   S24        1.0     0.549022      0.286536      0.786479     Biso  1.000000 S
   S25        1.0     0.048745      0.213481      0.213428     Biso  1.000000 S
   S26        1.0     0.048734      0.713481      0.713430     Biso  1.000000 S
   S27        1.0     0.786579      0.213488      0.951248     Biso  1.000000 S
   S28        1.0     0.286572      0.713479      0.951257     Biso  1.000000 S
   S29        1.0     0.786485      0.286523      0.549009     Biso  1.000000 S
   S30        1.0     0.786484      0.786524      0.049011     Biso  1.000000 S
   S31        1.0     0.286492      0.286527      0.049055     Biso  1.000000 S
   S32        1.0     0.286494      0.786515      0.549026     Biso  1.000000 S
   S33        1.0     0.450958      0.786512      0.713506     Biso  1.000000 S
   S34        1.0     0.450973      0.286526      0.213501     Biso  1.000000 S
   S35        1.0     0.951256      0.286522      0.286568     Biso  1.000000 S
   S36        1.0     0.951248      0.786522      0.786567     Biso  1.000000 S
   S37        1.0     0.549012      0.713486      0.786503     Biso  1.000000 S
   S38        1.0     0.549027      0.213493      0.286501     Biso  1.000000 S
   S39        1.0     0.713509      0.213480      0.450957     Biso  1.000000 S
   S40        1.0     0.713509      0.713479      0.950958     Biso  1.000000 S
   S41        1.0     0.213508      0.213483      0.951001     Biso  1.000000 S
   S42        1.0     0.213519      0.713462      0.450973     Biso  1.000000 S
   S43        1.0     0.713429      0.286517      0.048733     Biso  1.000000 S
   S44        1.0     0.213418      0.786512      0.048744     Biso  1.000000 S
   S45        1.0     0.213531      0.548872      0.286469     Biso  1.000000 S
   S46        1.0     0.786457      0.548885      0.713525     Biso  1.000000 S
   S47        1.0     0.786459      0.048876      0.213536     Biso  1.000000 S
   S48        1.0     0.286470      0.048891      0.713516     Biso  1.000000 S
