#======================================================================

# CRYSTAL DATA

#----------------------------------------------------------------------

data_VESTA_phase_1


_pd_phase_name                         'IRMOF-10                              '
_cell_length_a                         24.26707
_cell_length_b                         24.38574
_cell_length_c                         24.27348
_cell_angle_alpha                      60.09740
_cell_angle_beta                       59.95777
_cell_angle_gamma                      60.09254
_symmetry_space_group_name_H-M         'P 1'
_symmetry_Int_Tables_number            1

loop_
_symmetry_equiv_pos_as_xyz
   'x, y, z'

loop_
   _atom_site_label
   _atom_site_occupancy
   _atom_site_fract_x
   _atom_site_fract_y
   _atom_site_fract_z
   _atom_site_adp_type
   _atom_site_B_iso_or_equiv
   _atom_site_type_symbol
   C1         1.0     0.143317      0.149664      0.358349     Biso  1.000000 C
   C2         1.0     0.353104      0.353475      0.149931     Biso  1.000000 C
   C3         1.0     0.353347      0.141802      0.149100     Biso  1.000000 C
   C4         1.0     0.141311      0.353910      0.354774     Biso  1.000000 C
   C5         1.0     0.153169      0.351467      0.139104     Biso  1.000000 C
   C6         1.0     0.354526      0.146666      0.353275     Biso  1.000000 C
   C7         1.0     0.851397      0.857401      0.650013     Biso  1.000000 C
   C8         1.0     0.643327      0.647875      0.857795     Biso  1.000000 C
   C9         1.0     0.646559      0.854896      0.645736     Biso  1.000000 C
   C10        1.0     0.860841      0.643448      0.846516     Biso  1.000000 C
   C11        1.0     0.849733      0.648211      0.644946     Biso  1.000000 C
   C12        1.0     0.646022      0.849440      0.856948     Biso  1.000000 C
   C13        1.0     0.099357      0.107445      0.404428     Biso  1.000000 C
   C14        1.0     0.396091      0.396751      0.107714     Biso  1.000000 C
   C15        1.0     0.396276      0.097876      0.106767     Biso  1.000000 C
   C16        1.0     0.097286      0.396907      0.398026     Biso  1.000000 C
   C17        1.0     0.111569      0.393927      0.094406     Biso  1.000000 C
   C18        1.0     0.396415      0.103673      0.397643     Biso  1.000000 C
   C19        1.0     0.893942      0.901014      0.609595     Biso  1.000000 C
   C20        1.0     0.599833      0.605103      0.901740     Biso  1.000000 C
   C21        1.0     0.602179      0.898267      0.603869     Biso  1.000000 C
   C22        1.0     0.905637      0.598694      0.887967     Biso  1.000000 C
   C23        1.0     0.891879      0.605121      0.601781     Biso  1.000000 C
   C24        1.0     0.602403      0.891716      0.900938     Biso  1.000000 C
   C25        1.0     0.017212      0.026387      0.488933     Biso  1.000000 C
   C26        1.0     0.476921      0.479217      0.026929     Biso  1.000000 C
   C27        1.0     0.477876      0.015427      0.025939     Biso  1.000000 C
   C28        1.0     0.015000      0.479249      0.478947     Biso  1.000000 C
   C29        1.0     0.031428      0.474034      0.011121     Biso  1.000000 C
   C30        1.0     0.476074      0.022369      0.481235     Biso  1.000000 C
   C31        1.0     0.974787      0.983348      0.531272     Biso  1.000000 C
   C32        1.0     0.518883      0.522732      0.984183     Biso  1.000000 C
   C33        1.0     0.518741      0.979879      0.524049     Biso  1.000000 C
   C34        1.0     0.988816      0.516039      0.968196     Biso  1.000000 C
   C35        1.0     0.972409      0.522757      0.520897     Biso  1.000000 C
   C36        1.0     0.520472      0.972624      0.983267     Biso  1.000000 C
   C37        1.0     0.030296      0.135146      0.414055     Biso  1.000000 C
   C38        1.0     0.127136      0.039364      0.437816     Biso  1.000000 C
   C39        1.0     0.431590      0.402983      0.039543     Biso  1.000000 C
   C40        1.0     0.401304      0.431537      0.135545     Biso  1.000000 C
   C41        1.0     0.404981      0.029360      0.135368     Biso  1.000000 C
   C42        1.0     0.428503      0.125073      0.037723     Biso  1.000000 C
   C43        1.0     0.029114      0.431074      0.404152     Biso  1.000000 C
   C44        1.0     0.124174      0.403678      0.432683     Biso  1.000000 C
   C45        1.0     0.140842      0.403219      0.025337     Biso  1.000000 C
   C46        1.0     0.042231      0.424913      0.121713     Biso  1.000000 C
   C47        1.0     0.427669      0.034977      0.407330     Biso  1.000000 C
   C48        1.0     0.404714      0.131613      0.430093     Biso  1.000000 C
   C49        1.0     0.962482      0.874805      0.575038     Biso  1.000000 C
   C50        1.0     0.865943      0.968344      0.605316     Biso  1.000000 C
   C51        1.0     0.569126      0.594342      0.873915     Biso  1.000000 C
   C52        1.0     0.589742      0.574903      0.970896     Biso  1.000000 C
   C53        1.0     0.595720      0.966145      0.569547     Biso  1.000000 C
   C54        1.0     0.566520      0.871345      0.598621     Biso  1.000000 C
   C55        1.0     0.973861      0.592707      0.860065     Biso  1.000000 C
   C56        1.0     0.879257      0.562676      0.955818     Biso  1.000000 C
   C57        1.0     0.863034      0.573708      0.593285     Biso  1.000000 C
   C58        1.0     0.960960      0.595583      0.569516     Biso  1.000000 C
   C59        1.0     0.566060      0.959019      0.874469     Biso  1.000000 C
   C60        1.0     0.597560      0.864840      0.968678     Biso  1.000000 C
   C61        1.0     0.989854      0.094946      0.455594     Biso  1.000000 C
   C62        1.0     0.086412      0.999523      0.479835     Biso  1.000000 C
   C63        1.0     0.471940      0.443214      0.999926     Biso  1.000000 C
   C64        1.0     0.440802      0.472689      0.095415     Biso  1.000000 C
   C65        1.0     0.445121      0.988758      0.095302     Biso  1.000000 C
   C66        1.0     0.468978      0.084247      0.997970     Biso  1.000000 C
   C67        1.0     0.988667      0.472114      0.443763     Biso  1.000000 C
   C68        1.0     0.083348      0.443916      0.473026     Biso  1.000000 C
   C69        1.0     0.101084      0.442419      0.984373     Biso  1.000000 C
   C70        1.0     0.002901      0.464824      0.080464     Biso  1.000000 C
   C71        1.0     0.467306      0.994979      0.448328     Biso  1.000000 C
   C72        1.0     0.443737      0.091294      0.471699     Biso  1.000000 C
   C73        1.0     0.002223      0.915619      0.536112     Biso  1.000000 C
   C74        1.0     0.906066      0.008839      0.566900     Biso  1.000000 C
   C75        1.0     0.528766      0.554110      0.914785     Biso  1.000000 C
   C76        1.0     0.550146      0.533852      0.011440     Biso  1.000000 C
   C77        1.0     0.554864      0.006248      0.529748     Biso  1.000000 C
   C78        1.0     0.524929      0.911851      0.559601     Biso  1.000000 C
   C79        1.0     0.014733      0.552266      0.899918     Biso  1.000000 C
   C80        1.0     0.920525      0.521444      0.995121     Biso  1.000000 C
   C81        1.0     0.902989      0.532675      0.553680     Biso  1.000000 C
   C82        1.0     0.000517      0.555311      0.529213     Biso  1.000000 C
   C83        1.0     0.525324      0.998770      0.915303     Biso  1.000000 C
   C84        1.0     0.557318      0.905001      0.009186     Biso  1.000000 C
   H1         1.0     0.009498      0.188425      0.387438     Biso  1.000000 H
   H2         1.0     0.181109      0.018723      0.430175     Biso  1.000000 H
   H3         1.0     0.427268      0.375077      0.018744     Biso  1.000000 H
   H4         1.0     0.373063      0.426247      0.188888     Biso  1.000000 H
   H5         1.0     0.379151      0.008997      0.189355     Biso  1.000000 H
   H6         1.0     0.421486      0.178643      0.016332     Biso  1.000000 H
   H7         1.0     0.008982      0.425383      0.376527     Biso  1.000000 H
   H8         1.0     0.177469      0.376239      0.427641     Biso  1.000000 H
   H9         1.0     0.195081      0.378468      0.004795     Biso  1.000000 H
   H10        1.0     0.020258      0.417457      0.175726     Biso  1.000000 H
   H11        1.0     0.420760      0.014044      0.381411     Biso  1.000000 H
   H12        1.0     0.379460      0.185325      0.422328     Biso  1.000000 H
   H13        1.0     0.983403      0.822134      0.578767     Biso  1.000000 H
   H14        1.0     0.812377      0.987876      0.633057     Biso  1.000000 H
   H15        1.0     0.577241      0.618654      0.819822     Biso  1.000000 H
   H16        1.0     0.614326      0.583678      0.991755     Biso  1.000000 H
   H17        1.0     0.624073      0.986313      0.574117     Biso  1.000000 H
   H18        1.0     0.571768      0.818296      0.626273     Biso  1.000000 H
   H19        1.0     0.993691      0.621249      0.806954     Biso  1.000000 H
   H20        1.0     0.825945      0.567509      0.976667     Biso  1.000000 H
   H21        1.0     0.808983      0.581556      0.619056     Biso  1.000000 H
   H22        1.0     0.982552      0.620897      0.576374     Biso  1.000000 H
   H23        1.0     0.570123      0.979027      0.821517     Biso  1.000000 H
   H24        1.0     0.626585      0.812216      0.988411     Biso  1.000000 H
   H25        1.0     0.936313      0.116416      0.461078     Biso  1.000000 H
   H26        1.0     0.108159      0.946644      0.506978     Biso  1.000000 H
   H27        1.0     0.501245      0.446113      0.947197     Biso  1.000000 H
   H28        1.0     0.442799      0.501532      0.116984     Biso  1.000000 H
   H29        1.0     0.450308      0.935537      0.117624     Biso  1.000000 H
   H30        1.0     0.495477      0.105525      0.944359     Biso  1.000000 H
   H31        1.0     0.935935      0.500447      0.446541     Biso  1.000000 H
   H32        1.0     0.104250      0.447342      0.501598     Biso  1.000000 H
   H33        1.0     0.123996      0.447757      0.930768     Biso  1.000000 H
   H34        1.0     0.949102      0.490567      0.101894     Biso  1.000000 H
   H35        1.0     0.493390      0.941678      0.453966     Biso  1.000000 H
   H36        1.0     0.448545      0.113123      0.498383     Biso  1.000000 H
   H37        1.0     0.055271      0.895358      0.507417     Biso  1.000000 H
   H38        1.0     0.884270      0.061040      0.565076     Biso  1.000000 H
   H39        1.0     0.503301      0.547566      0.892983     Biso  1.000000 H
   H40        1.0     0.544295      0.508658      0.065092     Biso  1.000000 H
   H41        1.0     0.551830      0.058757      0.501179     Biso  1.000000 H
   H42        1.0     0.495680      0.890924      0.557270     Biso  1.000000 H
   H43        1.0     0.067455      0.549762      0.878359     Biso  1.000000 H
   H44        1.0     0.899914      0.491967      0.047609     Biso  1.000000 H
   H45        1.0     0.880493      0.506551      0.549000     Biso  1.000000 H
   H46        1.0     0.054123      0.549684      0.502541     Biso  1.000000 H
   H47        1.0     0.495549      0.050856      0.894794     Biso  1.000000 H
   H48        1.0     0.555304      0.884240      0.061607     Biso  1.000000 H
   O1         1.0     0.114468      0.212230      0.333242     Biso  1.000000 O
   O2         1.0     0.206473      0.119739      0.347430     Biso  1.000000 O
   O3         1.0     0.342992      0.331462      0.119142     Biso  1.000000 O
   O4         1.0     0.329847      0.341928      0.213357     Biso  1.000000 O
   O5         1.0     0.328436      0.113780      0.212337     Biso  1.000000 O
   O6         1.0     0.344894      0.204176      0.118734     Biso  1.000000 O
   O7         1.0     0.112791      0.342737      0.331144     Biso  1.000000 O
   O8         1.0     0.204298      0.331670      0.344678     Biso  1.000000 O
   O9         1.0     0.217019      0.331117      0.110958     Biso  1.000000 O
   O10        1.0     0.121349      0.338886      0.202220     Biso  1.000000 O
   O11        1.0     0.343295      0.117117      0.330898     Biso  1.000000 O
   O12        1.0     0.333224      0.209643      0.341150     Biso  1.000000 O
   O13        1.0     0.881497      0.795500      0.655948     Biso  1.000000 O
   O14        1.0     0.788192      0.885240      0.675367     Biso  1.000000 O
   O15        1.0     0.657279      0.666423      0.794456     Biso  1.000000 O
   O16        1.0     0.663343      0.662439      0.886835     Biso  1.000000 O
   O17        1.0     0.671000      0.883805      0.655390     Biso  1.000000 O
   O18        1.0     0.656655      0.792203      0.668611     Biso  1.000000 O
   O19        1.0     0.888770      0.667790      0.783141     Biso  1.000000 O
   O20        1.0     0.797838      0.654023      0.877948     Biso  1.000000 O
   O21        1.0     0.786119      0.661380      0.666595     Biso  1.000000 O
   O22        1.0     0.880765      0.668411      0.656828     Biso  1.000000 O
   O23        1.0     0.652556      0.878952      0.794560     Biso  1.000000 O
   O24        1.0     0.673444      0.787191      0.884907     Biso  1.000000 O
   O25        1.0     0.250022      0.249733      0.249843     Biso  1.000000 O
   O26        1.0     0.750212      0.750184      0.749724     Biso  1.000000 O
   Zn1        1.0     0.152162      0.284349      0.279152     Biso  1.000000 Zn
   Zn2        1.0     0.281658      0.152315      0.283574     Biso  1.000000 Zn
   Zn3        1.0     0.286797      0.279245      0.152029     Biso  1.000000 Zn
   Zn4        1.0     0.279504      0.282501      0.285388     Biso  1.000000 Zn
   Zn5        1.0     0.848030      0.720512      0.713057     Biso  1.000000 Zn
   Zn6        1.0     0.716779      0.847603      0.718611     Biso  1.000000 Zn
   Zn7        1.0     0.714408      0.718224      0.719762     Biso  1.000000 Zn
   Zn8        1.0     0.721018      0.715142      0.847540     Biso  1.000000 Zn
