#======================================================================

# CRYSTAL DATA

#----------------------------------------------------------------------

data_VESTA_phase_1


_pd_phase_name                         'irmof-10                              '
_cell_length_a                         21.52643
_cell_length_b                         21.52636
_cell_length_c                         21.52662
_cell_angle_alpha                      90
_cell_angle_beta                       90
_cell_angle_gamma                      90
_symmetry_space_group_name_H-M         'P 1'
_symmetry_Int_Tables_number            1

loop_
_symmetry_equiv_pos_as_xyz
   'x, y, z'

loop_
   _atom_site_label
   _atom_site_occupancy
   _atom_site_fract_x
   _atom_site_fract_y
   _atom_site_fract_z
   _atom_site_adp_type
   _atom_site_B_iso_or_equiv
   _atom_site_type_symbol
   Zn1        1.0     0.552082      0.447918      0.447915     Biso  1.000000 Zn
   Zn2        1.0     0.447918      0.552082      0.447915     Biso  1.000000 Zn
   Zn3        1.0     0.447918      0.447918      0.552085     Biso  1.000000 Zn
   Zn4        1.0     0.552082      0.552082      0.552085     Biso  1.000000 Zn
   O1         1.0     0.500000      0.500000      0.500000     Biso  1.000000 O
   O2         1.0     0.537209      0.462582      0.360228     Biso  1.000000 O
   O3         1.0     0.462791      0.537418      0.360228     Biso  1.000000 O
   O4         1.0     0.462586      0.639770      0.462787     Biso  1.000000 O
   O5         1.0     0.462586      0.360230      0.537213     Biso  1.000000 O
   O6         1.0     0.360230      0.462794      0.537421     Biso  1.000000 O
   O7         1.0     0.639770      0.462794      0.462579     Biso  1.000000 O
   O8         1.0     0.462791      0.462582      0.639772     Biso  1.000000 O
   O9         1.0     0.537209      0.537418      0.639772     Biso  1.000000 O
   O10        1.0     0.537414      0.360230      0.462787     Biso  1.000000 O
   O11        1.0     0.537414      0.639770      0.537213     Biso  1.000000 O
   O12        1.0     0.360230      0.537206      0.462579     Biso  1.000000 O
   O13        1.0     0.639770      0.537206      0.537421     Biso  1.000000 O
   C1         1.0     0.500000      0.500000      0.333400     Biso  1.000000 C
   C2         1.0     0.500000      0.666597      0.500000     Biso  1.000000 C
   C3         1.0     0.500000      0.500000      0.666600     Biso  1.000000 C
   C4         1.0     0.500000      0.333403      0.500000     Biso  1.000000 C
   C5         1.0     0.333403      0.500000      0.500000     Biso  1.000000 C
   C6         1.0     0.666597      0.500000      0.500000     Biso  1.000000 C
   C7         1.0     0.500000      0.500000      0.264401     Biso  1.000000 C
   C8         1.0     0.500000      0.735597      0.500000     Biso  1.000000 C
   C9         1.0     0.500000      0.500000      0.735599     Biso  1.000000 C
   C10        1.0     0.500000      0.264403      0.500000     Biso  1.000000 C
   C11        1.0     0.264404      0.500000      0.500000     Biso  1.000000 C
   C12        1.0     0.735596      0.500000      0.500000     Biso  1.000000 C
   C13        1.0     0.539032      0.459592      0.231712     Biso  1.000000 C
   C14        1.0     0.460968      0.540408      0.231712     Biso  1.000000 C
   C15        1.0     0.459591      0.768286      0.460968     Biso  1.000000 C
   C16        1.0     0.459591      0.231714      0.539032     Biso  1.000000 C
   C17        1.0     0.231714      0.460973      0.540413     Biso  1.000000 C
   C18        1.0     0.768286      0.460973      0.459587     Biso  1.000000 C
   C19        1.0     0.460968      0.459592      0.768288     Biso  1.000000 C
   C20        1.0     0.539032      0.540408      0.768288     Biso  1.000000 C
   C21        1.0     0.540409      0.231714      0.460968     Biso  1.000000 C
   C22        1.0     0.540409      0.768286      0.539032     Biso  1.000000 C
   C23        1.0     0.231714      0.539027      0.459587     Biso  1.000000 C
   C24        1.0     0.768286      0.539027      0.540413     Biso  1.000000 C
   C25        1.0     0.538697      0.459387      0.167247     Biso  1.000000 C
   C26        1.0     0.461303      0.540613      0.167247     Biso  1.000000 C
   C27        1.0     0.459387      0.832752      0.461303     Biso  1.000000 C
   C28        1.0     0.459387      0.167248      0.538697     Biso  1.000000 C
   C29        1.0     0.167248      0.461308      0.540618     Biso  1.000000 C
   C30        1.0     0.832752      0.461308      0.459382     Biso  1.000000 C
   C31        1.0     0.461303      0.459387      0.832753     Biso  1.000000 C
   C32        1.0     0.538697      0.540613      0.832753     Biso  1.000000 C
   C33        1.0     0.540613      0.167248      0.461303     Biso  1.000000 C
   C34        1.0     0.540613      0.832752      0.538697     Biso  1.000000 C
   C35        1.0     0.167248      0.538692      0.459382     Biso  1.000000 C
   C36        1.0     0.832752      0.538692      0.540618     Biso  1.000000 C
   C37        1.0     0.500000      0.500000      0.133984     Biso  1.000000 C
   C38        1.0     0.500000      0.866015      0.500000     Biso  1.000000 C
   C39        1.0     0.500000      0.500000      0.866017     Biso  1.000000 C
   C40        1.0     0.500000      0.133985      0.500000     Biso  1.000000 C
   C41        1.0     0.133984      0.500000      0.500000     Biso  1.000000 C
   C42        1.0     0.866016      0.500000      0.500000     Biso  1.000000 C
   C43        1.0     0.500000      0.500000      0.065660     Biso  1.000000 C
   C44        1.0     0.500000      0.934339      0.500000     Biso  1.000000 C
   C45        1.0     0.500000      0.500000      0.934340     Biso  1.000000 C
   C46        1.0     0.500000      0.065661      0.500000     Biso  1.000000 C
   C47        1.0     0.065661      0.500000      0.500000     Biso  1.000000 C
   C48        1.0     0.934339      0.500000      0.500000     Biso  1.000000 C
   C49        1.0     0.500434      0.444067      0.032259     Biso  1.000000 C
   C50        1.0     0.499566      0.555933      0.032259     Biso  1.000000 C
   C51        1.0     0.444067      0.967741      0.499566     Biso  1.000000 C
   C52        1.0     0.444067      0.032259      0.500434     Biso  1.000000 C
   C53        1.0     0.032260      0.499566      0.555932     Biso  1.000000 C
   C54        1.0     0.967740      0.499566      0.444068     Biso  1.000000 C
   C55        1.0     0.499566      0.444067      0.967741     Biso  1.000000 C
   C56        1.0     0.500434      0.555933      0.967741     Biso  1.000000 C
   C57        1.0     0.555933      0.032259      0.499566     Biso  1.000000 C
   C58        1.0     0.555933      0.967741      0.500434     Biso  1.000000 C
   C59        1.0     0.032260      0.500434      0.444068     Biso  1.000000 C
   C60        1.0     0.967740      0.500434      0.555932     Biso  1.000000 C
   H1         1.0     0.569750      0.428821      0.257990     Biso  1.000000 H
   H2         1.0     0.430250      0.571179      0.257990     Biso  1.000000 H
   H3         1.0     0.428822      0.742008      0.430250     Biso  1.000000 H
   H4         1.0     0.428822      0.257992      0.569750     Biso  1.000000 H
   H5         1.0     0.257992      0.430261      0.571189     Biso  1.000000 H
   H6         1.0     0.742008      0.430261      0.428811     Biso  1.000000 H
   H7         1.0     0.430250      0.428821      0.742010     Biso  1.000000 H
   H8         1.0     0.569750      0.571179      0.742010     Biso  1.000000 H
   H9         1.0     0.571178      0.257992      0.430250     Biso  1.000000 H
   H10        1.0     0.571178      0.742008      0.569750     Biso  1.000000 H
   H11        1.0     0.257992      0.569739      0.428811     Biso  1.000000 H
   H12        1.0     0.742008      0.569739      0.571189     Biso  1.000000 H
   H13        1.0     0.569968      0.428427      0.141721     Biso  1.000000 H
   H14        1.0     0.430032      0.571573      0.141721     Biso  1.000000 H
   H15        1.0     0.428429      0.858278      0.430031     Biso  1.000000 H
   H16        1.0     0.428429      0.141722      0.569969     Biso  1.000000 H
   H17        1.0     0.141723      0.430040      0.571580     Biso  1.000000 H
   H18        1.0     0.858277      0.430040      0.428420     Biso  1.000000 H
   H19        1.0     0.430032      0.428427      0.858279     Biso  1.000000 H
   H20        1.0     0.569968      0.571573      0.858279     Biso  1.000000 H
   H21        1.0     0.571571      0.141722      0.430031     Biso  1.000000 H
   H22        1.0     0.571571      0.858278      0.569969     Biso  1.000000 H
   H23        1.0     0.141723      0.569960      0.428420     Biso  1.000000 H
   H24        1.0     0.858277      0.569960      0.571580     Biso  1.000000 H
   H25        1.0     0.500254      0.399960      0.057619     Biso  1.000000 H
   H26        1.0     0.499746      0.600040      0.057619     Biso  1.000000 H
   H27        1.0     0.399961      0.942380      0.499746     Biso  1.000000 H
   H28        1.0     0.399961      0.057620      0.500254     Biso  1.000000 H
   H29        1.0     0.057619      0.499747      0.600039     Biso  1.000000 H
   H30        1.0     0.942381      0.499747      0.399961     Biso  1.000000 H
   H31        1.0     0.499746      0.399960      0.942381     Biso  1.000000 H
   H32        1.0     0.500254      0.600040      0.942381     Biso  1.000000 H
   H33        1.0     0.600039      0.057620      0.499746     Biso  1.000000 H
   H34        1.0     0.600039      0.942380      0.500254     Biso  1.000000 H
   H35        1.0     0.057619      0.500253      0.399961     Biso  1.000000 H
   H36        1.0     0.942381      0.500253      0.600039     Biso  1.000000 H
