#======================================================================

# CRYSTAL DATA

#----------------------------------------------------------------------

data_VESTA_phase_1


_pd_phase_name                         'C96H72O72T16 PBEsol                   '
_cell_length_a                         18.92389
_cell_length_b                         18.92389
_cell_length_c                         17.95587
_cell_angle_alpha                      90
_cell_angle_beta                       90
_cell_angle_gamma                      90
_symmetry_space_group_name_H-M         'P 1'
_symmetry_Int_Tables_number            1

loop_
_symmetry_equiv_pos_as_xyz
   'x, y, z'

loop_
   _atom_site_label
   _atom_site_occupancy
   _atom_site_fract_x
   _atom_site_fract_y
   _atom_site_fract_z
   _atom_site_adp_type
   _atom_site_B_iso_or_equiv
   _atom_site_type_symbol
   C1         1.0     0.348220      0.000000      0.500000     Biso  1.000000 C
   C2         1.0     0.651780      0.000000      0.500000     Biso  1.000000 C
   C3         1.0     0.000000      0.651780      0.500000     Biso  1.000000 C
   C4         1.0     0.000000      0.348220      0.500000     Biso  1.000000 C
   C5         1.0     0.500000      0.848220      0.000000     Biso  1.000000 C
   C6         1.0     0.500000      0.151780      0.000000     Biso  1.000000 C
   C7         1.0     0.151780      0.500000      0.000000     Biso  1.000000 C
   C8         1.0     0.848220      0.500000      0.000000     Biso  1.000000 C
   C9         1.0     0.926593      0.500000      0.000000     Biso  1.000000 C
   C10        1.0     0.073407      0.500000      0.000000     Biso  1.000000 C
   C11        1.0     0.500000      0.073407      0.000000     Biso  1.000000 C
   C12        1.0     0.500000      0.926593      0.000000     Biso  1.000000 C
   C13        1.0     0.000000      0.426593      0.500000     Biso  1.000000 C
   C14        1.0     0.000000      0.573407      0.500000     Biso  1.000000 C
   C15        1.0     0.573407      0.000000      0.500000     Biso  1.000000 C
   C16        1.0     0.426593      0.000000      0.500000     Biso  1.000000 C
   C17        1.0     0.963336      0.564224      0.000000     Biso  1.000000 C
   C18        1.0     0.036664      0.435776      0.000000     Biso  1.000000 C
   C19        1.0     0.564224      0.036664      0.000000     Biso  1.000000 C
   C20        1.0     0.435776      0.963336      0.000000     Biso  1.000000 C
   C21        1.0     0.564224      0.963336      0.000000     Biso  1.000000 C
   C22        1.0     0.435776      0.036664      0.000000     Biso  1.000000 C
   C23        1.0     0.963336      0.435776      0.000000     Biso  1.000000 C
   C24        1.0     0.036664      0.564224      0.000000     Biso  1.000000 C
   C25        1.0     0.536664      0.064224      0.500000     Biso  1.000000 C
   C26        1.0     0.463336      0.935776      0.500000     Biso  1.000000 C
   C27        1.0     0.935776      0.536664      0.500000     Biso  1.000000 C
   C28        1.0     0.064224      0.463336      0.500000     Biso  1.000000 C
   C29        1.0     0.935776      0.463336      0.500000     Biso  1.000000 C
   C30        1.0     0.064224      0.536664      0.500000     Biso  1.000000 C
   C31        1.0     0.536664      0.935776      0.500000     Biso  1.000000 C
   C32        1.0     0.463336      0.064224      0.500000     Biso  1.000000 C
   C33        1.0     0.225536      0.225536      0.318207     Biso  1.000000 C
   C34        1.0     0.774464      0.774464      0.681793     Biso  1.000000 C
   C35        1.0     0.225536      0.225536      0.681793     Biso  1.000000 C
   C36        1.0     0.774464      0.774464      0.318207     Biso  1.000000 C
   C37        1.0     0.225536      0.774464      0.318207     Biso  1.000000 C
   C38        1.0     0.774464      0.225536      0.681793     Biso  1.000000 C
   C39        1.0     0.225536      0.774464      0.681793     Biso  1.000000 C
   C40        1.0     0.774464      0.225536      0.318207     Biso  1.000000 C
   C41        1.0     0.274464      0.725536      0.818207     Biso  1.000000 C
   C42        1.0     0.725536      0.274464      0.181793     Biso  1.000000 C
   C43        1.0     0.274464      0.725536      0.181793     Biso  1.000000 C
   C44        1.0     0.725536      0.274464      0.818207     Biso  1.000000 C
   C45        1.0     0.274464      0.274464      0.818207     Biso  1.000000 C
   C46        1.0     0.725536      0.725536      0.181793     Biso  1.000000 C
   C47        1.0     0.274464      0.274464      0.181793     Biso  1.000000 C
   C48        1.0     0.725536      0.725536      0.818207     Biso  1.000000 C
   C49        1.0     0.698667      0.698667      0.890563     Biso  1.000000 C
   C50        1.0     0.301333      0.301333      0.109437     Biso  1.000000 C
   C51        1.0     0.698667      0.698667      0.109437     Biso  1.000000 C
   C52        1.0     0.301333      0.301333      0.890563     Biso  1.000000 C
   C53        1.0     0.698667      0.301333      0.890563     Biso  1.000000 C
   C54        1.0     0.301333      0.698667      0.109437     Biso  1.000000 C
   C55        1.0     0.698667      0.301333      0.109437     Biso  1.000000 C
   C56        1.0     0.301333      0.698667      0.890563     Biso  1.000000 C
   C57        1.0     0.801333      0.198667      0.390563     Biso  1.000000 C
   C58        1.0     0.198667      0.801333      0.609437     Biso  1.000000 C
   C59        1.0     0.801333      0.198667      0.609437     Biso  1.000000 C
   C60        1.0     0.198667      0.801333      0.390563     Biso  1.000000 C
   C61        1.0     0.801333      0.801333      0.390563     Biso  1.000000 C
   C62        1.0     0.198667      0.198667      0.609437     Biso  1.000000 C
   C63        1.0     0.801333      0.801333      0.609437     Biso  1.000000 C
   C64        1.0     0.198667      0.198667      0.390563     Biso  1.000000 C
   C65        1.0     0.192385      0.283166      0.284055     Biso  1.000000 C
   C66        1.0     0.807615      0.716834      0.715945     Biso  1.000000 C
   C67        1.0     0.192385      0.283166      0.715945     Biso  1.000000 C
   C68        1.0     0.807615      0.716834      0.284055     Biso  1.000000 C
   C69        1.0     0.283166      0.807615      0.284055     Biso  1.000000 C
   C70        1.0     0.716834      0.192385      0.715945     Biso  1.000000 C
   C71        1.0     0.283166      0.807615      0.715945     Biso  1.000000 C
   C72        1.0     0.716834      0.192385      0.284055     Biso  1.000000 C
   C73        1.0     0.283166      0.192385      0.715945     Biso  1.000000 C
   C74        1.0     0.716834      0.807615      0.284055     Biso  1.000000 C
   C75        1.0     0.283166      0.192385      0.284055     Biso  1.000000 C
   C76        1.0     0.716834      0.807615      0.715945     Biso  1.000000 C
   C77        1.0     0.192385      0.716834      0.715945     Biso  1.000000 C
   C78        1.0     0.807615      0.283166      0.284055     Biso  1.000000 C
   C79        1.0     0.192385      0.716834      0.284055     Biso  1.000000 C
   C80        1.0     0.807615      0.283166      0.715945     Biso  1.000000 C
   C81        1.0     0.307615      0.783166      0.215945     Biso  1.000000 C
   C82        1.0     0.692385      0.216834      0.784055     Biso  1.000000 C
   C83        1.0     0.307615      0.783166      0.784055     Biso  1.000000 C
   C84        1.0     0.692385      0.216834      0.215945     Biso  1.000000 C
   C85        1.0     0.216834      0.307615      0.215945     Biso  1.000000 C
   C86        1.0     0.783166      0.692385      0.784055     Biso  1.000000 C
   C87        1.0     0.216834      0.307615      0.784055     Biso  1.000000 C
   C88        1.0     0.783166      0.692385      0.215945     Biso  1.000000 C
   C89        1.0     0.216834      0.692385      0.784055     Biso  1.000000 C
   C90        1.0     0.783166      0.307615      0.215945     Biso  1.000000 C
   C91        1.0     0.216834      0.692385      0.215945     Biso  1.000000 C
   C92        1.0     0.783166      0.307615      0.784055     Biso  1.000000 C
   C93        1.0     0.307615      0.216834      0.784055     Biso  1.000000 C
   C94        1.0     0.692385      0.783166      0.215945     Biso  1.000000 C
   C95        1.0     0.307615      0.216834      0.215945     Biso  1.000000 C
   C96        1.0     0.692385      0.783166      0.784055     Biso  1.000000 C
   H1         1.0     0.852649      0.692173      0.687997     Biso  1.000000 H
   H2         1.0     0.147351      0.307827      0.312003     Biso  1.000000 H
   H3         1.0     0.852649      0.692173      0.312003     Biso  1.000000 H
   H4         1.0     0.147351      0.307827      0.687997     Biso  1.000000 H
   H5         1.0     0.692173      0.147351      0.687997     Biso  1.000000 H
   H6         1.0     0.307827      0.852649      0.312003     Biso  1.000000 H
   H7         1.0     0.692173      0.147351      0.312003     Biso  1.000000 H
   H8         1.0     0.307827      0.852649      0.687997     Biso  1.000000 H
   H9         1.0     0.147351      0.692173      0.312003     Biso  1.000000 H
   H10        1.0     0.852649      0.307827      0.687997     Biso  1.000000 H
   H11        1.0     0.147351      0.692173      0.687997     Biso  1.000000 H
   H12        1.0     0.852649      0.307827      0.312003     Biso  1.000000 H
   H13        1.0     0.307827      0.147351      0.312003     Biso  1.000000 H
   H14        1.0     0.692173      0.852649      0.687997     Biso  1.000000 H
   H15        1.0     0.307827      0.147351      0.687997     Biso  1.000000 H
   H16        1.0     0.692173      0.852649      0.312003     Biso  1.000000 H
   H17        1.0     0.807827      0.352649      0.187997     Biso  1.000000 H
   H18        1.0     0.192173      0.647351      0.812003     Biso  1.000000 H
   H19        1.0     0.807827      0.352649      0.812003     Biso  1.000000 H
   H20        1.0     0.192173      0.647351      0.187997     Biso  1.000000 H
   H21        1.0     0.647351      0.807827      0.187997     Biso  1.000000 H
   H22        1.0     0.352649      0.192173      0.812003     Biso  1.000000 H
   H23        1.0     0.647351      0.807827      0.812003     Biso  1.000000 H
   H24        1.0     0.352649      0.192173      0.187997     Biso  1.000000 H
   H25        1.0     0.192173      0.352649      0.812003     Biso  1.000000 H
   H26        1.0     0.807827      0.647351      0.187997     Biso  1.000000 H
   H27        1.0     0.192173      0.352649      0.187997     Biso  1.000000 H
   H28        1.0     0.807827      0.647351      0.812003     Biso  1.000000 H
   H29        1.0     0.352649      0.807827      0.812003     Biso  1.000000 H
   H30        1.0     0.647351      0.192173      0.187997     Biso  1.000000 H
   H31        1.0     0.352649      0.807827      0.187997     Biso  1.000000 H
   H32        1.0     0.647351      0.192173      0.812003     Biso  1.000000 H
   H33        1.0     0.426085      0.573915      0.000000     Biso  1.000000 H
   H34        1.0     0.573915      0.426085      0.000000     Biso  1.000000 H
   H35        1.0     0.426085      0.426085      0.000000     Biso  1.000000 H
   H36        1.0     0.573915      0.573915      0.000000     Biso  1.000000 H
   H37        1.0     0.926085      0.073915      0.500000     Biso  1.000000 H
   H38        1.0     0.073915      0.926085      0.500000     Biso  1.000000 H
   H39        1.0     0.926085      0.926085      0.500000     Biso  1.000000 H
   H40        1.0     0.073915      0.073915      0.500000     Biso  1.000000 H
   H41        1.0     0.386422      0.066726      0.000000     Biso  1.000000 H
   H42        1.0     0.613578      0.933274      0.000000     Biso  1.000000 H
   H43        1.0     0.066726      0.613578      0.000000     Biso  1.000000 H
   H44        1.0     0.933274      0.386422      0.000000     Biso  1.000000 H
   H45        1.0     0.066726      0.386422      0.000000     Biso  1.000000 H
   H46        1.0     0.933274      0.613578      0.000000     Biso  1.000000 H
   H47        1.0     0.386422      0.933274      0.000000     Biso  1.000000 H
   H48        1.0     0.613578      0.066726      0.000000     Biso  1.000000 H
   H49        1.0     0.113578      0.566726      0.500000     Biso  1.000000 H
   H50        1.0     0.886422      0.433274      0.500000     Biso  1.000000 H
   H51        1.0     0.433274      0.113578      0.500000     Biso  1.000000 H
   H52        1.0     0.566726      0.886422      0.500000     Biso  1.000000 H
   H53        1.0     0.433274      0.886422      0.500000     Biso  1.000000 H
   H54        1.0     0.566726      0.113578      0.500000     Biso  1.000000 H
   H55        1.0     0.113578      0.433274      0.500000     Biso  1.000000 H
   H56        1.0     0.886422      0.566726      0.500000     Biso  1.000000 H
   O1         1.0     0.316612      0.059514      0.500000     Biso  1.000000 O
   O2         1.0     0.683388      0.940486      0.500000     Biso  1.000000 O
   O3         1.0     0.059514      0.683388      0.500000     Biso  1.000000 O
   O4         1.0     0.940486      0.316612      0.500000     Biso  1.000000 O
   O5         1.0     0.059514      0.316612      0.500000     Biso  1.000000 O
   O6         1.0     0.940486      0.683388      0.500000     Biso  1.000000 O
   O7         1.0     0.316612      0.940486      0.500000     Biso  1.000000 O
   O8         1.0     0.683388      0.059514      0.500000     Biso  1.000000 O
   O9         1.0     0.183388      0.559514      0.000000     Biso  1.000000 O
   O10        1.0     0.816612      0.440486      0.000000     Biso  1.000000 O
   O11        1.0     0.440486      0.183388      0.000000     Biso  1.000000 O
   O12        1.0     0.559514      0.816612      0.000000     Biso  1.000000 O
   O13        1.0     0.440486      0.816612      0.000000     Biso  1.000000 O
   O14        1.0     0.559514      0.183388      0.000000     Biso  1.000000 O
   O15        1.0     0.183388      0.440486      0.000000     Biso  1.000000 O
   O16        1.0     0.816612      0.559514      0.000000     Biso  1.000000 O
   O17        1.0     0.698820      0.500000      0.931080     Biso  1.000000 O
   O18        1.0     0.301180      0.500000      0.068920     Biso  1.000000 O
   O19        1.0     0.698820      0.500000      0.068920     Biso  1.000000 O
   O20        1.0     0.301180      0.500000      0.931080     Biso  1.000000 O
   O21        1.0     0.500000      0.301180      0.931080     Biso  1.000000 O
   O22        1.0     0.500000      0.698820      0.068920     Biso  1.000000 O
   O23        1.0     0.500000      0.301180      0.068920     Biso  1.000000 O
   O24        1.0     0.500000      0.698820      0.931080     Biso  1.000000 O
   O25        1.0     0.000000      0.198820      0.431080     Biso  1.000000 O
   O26        1.0     0.000000      0.801180      0.568920     Biso  1.000000 O
   O27        1.0     0.000000      0.198820      0.568920     Biso  1.000000 O
   O28        1.0     0.000000      0.801180      0.431080     Biso  1.000000 O
   O29        1.0     0.801180      0.000000      0.431080     Biso  1.000000 O
   O30        1.0     0.198820      0.000000      0.568920     Biso  1.000000 O
   O31        1.0     0.801180      0.000000      0.568920     Biso  1.000000 O
   O32        1.0     0.198820      0.000000      0.431080     Biso  1.000000 O
   O33        1.0     0.229820      0.145882      0.419483     Biso  1.000000 O
   O34        1.0     0.770180      0.854118      0.580517     Biso  1.000000 O
   O35        1.0     0.229820      0.145882      0.580517     Biso  1.000000 O
   O36        1.0     0.770180      0.854118      0.419483     Biso  1.000000 O
   O37        1.0     0.145882      0.770180      0.419483     Biso  1.000000 O
   O38        1.0     0.854118      0.229820      0.580517     Biso  1.000000 O
   O39        1.0     0.145882      0.770180      0.580517     Biso  1.000000 O
   O40        1.0     0.854118      0.229820      0.419483     Biso  1.000000 O
   O41        1.0     0.145882      0.229820      0.580517     Biso  1.000000 O
   O42        1.0     0.854118      0.770180      0.419483     Biso  1.000000 O
   O43        1.0     0.145882      0.229820      0.419483     Biso  1.000000 O
   O44        1.0     0.854118      0.770180      0.580517     Biso  1.000000 O
   O45        1.0     0.229820      0.854118      0.580517     Biso  1.000000 O
   O46        1.0     0.770180      0.145882      0.419483     Biso  1.000000 O
   O47        1.0     0.229820      0.854118      0.419483     Biso  1.000000 O
   O48        1.0     0.770180      0.145882      0.580517     Biso  1.000000 O
   O49        1.0     0.270180      0.645882      0.080517     Biso  1.000000 O
   O50        1.0     0.729820      0.354118      0.919483     Biso  1.000000 O
   O51        1.0     0.270180      0.645882      0.919483     Biso  1.000000 O
   O52        1.0     0.729820      0.354118      0.080517     Biso  1.000000 O
   O53        1.0     0.354118      0.270180      0.080517     Biso  1.000000 O
   O54        1.0     0.645882      0.729820      0.919483     Biso  1.000000 O
   O55        1.0     0.354118      0.270180      0.919483     Biso  1.000000 O
   O56        1.0     0.645882      0.729820      0.080517     Biso  1.000000 O
   O57        1.0     0.354118      0.729820      0.919483     Biso  1.000000 O
   O58        1.0     0.645882      0.270180      0.080517     Biso  1.000000 O
   O59        1.0     0.354118      0.729820      0.080517     Biso  1.000000 O
   O60        1.0     0.645882      0.270180      0.919483     Biso  1.000000 O
   O61        1.0     0.270180      0.354118      0.919483     Biso  1.000000 O
   O62        1.0     0.729820      0.645882      0.080517     Biso  1.000000 O
   O63        1.0     0.270180      0.354118      0.080517     Biso  1.000000 O
   O64        1.0     0.729820      0.645882      0.919483     Biso  1.000000 O
   O65        1.0     0.110249      0.110249      0.500000     Biso  1.000000 O
   O66        1.0     0.889751      0.889751      0.500000     Biso  1.000000 O
   O67        1.0     0.110249      0.889751      0.500000     Biso  1.000000 O
   O68        1.0     0.889751      0.110249      0.500000     Biso  1.000000 O
   O69        1.0     0.389751      0.610249      0.000000     Biso  1.000000 O
   O70        1.0     0.610249      0.389751      0.000000     Biso  1.000000 O
   O71        1.0     0.389751      0.389751      0.000000     Biso  1.000000 O
   O72        1.0     0.610249      0.610249      0.000000     Biso  1.000000 O
   Ti1        1.0     0.789852      0.072302      0.500000     Biso  1.000000 Ti
   Ti2        1.0     0.210148      0.927698      0.500000     Biso  1.000000 Ti
   Ti3        1.0     0.927698      0.789852      0.500000     Biso  1.000000 Ti
   Ti4        1.0     0.072302      0.210148      0.500000     Biso  1.000000 Ti
   Ti5        1.0     0.927698      0.210148      0.500000     Biso  1.000000 Ti
   Ti6        1.0     0.072302      0.789852      0.500000     Biso  1.000000 Ti
   Ti7        1.0     0.789852      0.927698      0.500000     Biso  1.000000 Ti
   Ti8        1.0     0.210148      0.072302      0.500000     Biso  1.000000 Ti
   Ti9        1.0     0.289852      0.572302      0.000000     Biso  1.000000 Ti
   Ti10       1.0     0.710148      0.427698      0.000000     Biso  1.000000 Ti
   Ti11       1.0     0.427698      0.289852      0.000000     Biso  1.000000 Ti
   Ti12       1.0     0.572302      0.710148      0.000000     Biso  1.000000 Ti
   Ti13       1.0     0.427698      0.710148      0.000000     Biso  1.000000 Ti
   Ti14       1.0     0.572302      0.289852      0.000000     Biso  1.000000 Ti
   Ti15       1.0     0.289852      0.427698      0.000000     Biso  1.000000 Ti
   Ti16       1.0     0.710148      0.572302      0.000000     Biso  1.000000 Ti
