#======================================================================

# CRYSTAL DATA

#----------------------------------------------------------------------

data_VESTA_phase_1


_pd_phase_name                         '132                                   '
_cell_length_a                         16.11118
_cell_length_b                         21.25005
_cell_length_c                         9.66048
_cell_angle_alpha                      90
_cell_angle_beta                       90
_cell_angle_gamma                      90
_symmetry_space_group_name_H-M         'P 1'
_symmetry_Int_Tables_number            1

loop_
_symmetry_equiv_pos_as_xyz
   'x, y, z'

loop_
   _atom_site_label
   _atom_site_occupancy
   _atom_site_fract_x
   _atom_site_fract_y
   _atom_site_fract_z
   _atom_site_adp_type
   _atom_site_B_iso_or_equiv
   _atom_site_type_symbol
   Zn1        1.0     0.500458      0.000119      0.350890     Biso  1.000000 Zn
   Zn2        1.0     0.499846      0.999988      0.649100     Biso  1.000000 Zn
   Zn3        1.0     0.000116      0.500050      0.350919     Biso  1.000000 Zn
   Zn4        1.0     0.000328      0.500108      0.648841     Biso  1.000000 Zn
   O1         1.0     0.588691      0.932634      0.385093     Biso  1.000000 O
   O2         1.0     0.412257      0.068210      0.617243     Biso  1.000000 O
   O3         1.0     0.412739      0.068149      0.383319     Biso  1.000000 O
   O4         1.0     0.587664      0.931760      0.619092     Biso  1.000000 O
   O5         1.0     0.412919      0.933089      0.615098     Biso  1.000000 O
   O6         1.0     0.586750      0.067779      0.382303     Biso  1.000000 O
   O7         1.0     0.586141      0.067606      0.617171     Biso  1.000000 O
   O8         1.0     0.414144      0.932305      0.380102     Biso  1.000000 O
   O9         1.0     0.086518      0.432401      0.382222     Biso  1.000000 O
   O10        1.0     0.913521      0.567387      0.617112     Biso  1.000000 O
   O11        1.0     0.913633      0.567716      0.382029     Biso  1.000000 O
   O12        1.0     0.086740      0.432537      0.617107     Biso  1.000000 O
   O13        1.0     0.912955      0.431684      0.617147     Biso  1.000000 O
   O14        1.0     0.088484      0.567665      0.383255     Biso  1.000000 O
   O15        1.0     0.088532      0.567940      0.617227     Biso  1.000000 O
   O16        1.0     0.912495      0.431925      0.383175     Biso  1.000000 O
   C1         1.0     0.609643      0.910349      0.501919     Biso  1.000000 C
   C2         1.0     0.391040      0.090012      0.500173     Biso  1.000000 C
   C3         1.0     0.391919      0.910960      0.497664     Biso  1.000000 C
   C4         1.0     0.608015      0.089428      0.499943     Biso  1.000000 C
   C5         1.0     0.108175      0.410734      0.499664     Biso  1.000000 C
   C6         1.0     0.891875      0.589218      0.499685     Biso  1.000000 C
   C7         1.0     0.891301      0.409949      0.500207     Biso  1.000000 C
   C8         1.0     0.020104      0.564326      0.079863     Biso  1.000000 C
   C9         1.0     0.015593      0.565109      0.919976     Biso  1.000000 C
   C10        1.0     0.110051      0.589604      0.500091     Biso  1.000000 C
   C11        1.0     0.663931      0.852164      0.501511     Biso  1.000000 C
   C12        1.0     0.512798      0.934604      0.079018     Biso  1.000000 C
   C13        1.0     0.498302      0.933859      0.921077     Biso  1.000000 C
   C14        1.0     0.064610      0.458059      0.919994     Biso  1.000000 C
   C15        1.0     0.061612      0.455470      0.079525     Biso  1.000000 C
   C16        1.0     0.336565      0.148070      0.499911     Biso  1.000000 C
   C17        1.0     0.338616      0.854435      0.497794     Biso  1.000000 C
   C18        1.0     0.661503      0.145844      0.500405     Biso  1.000000 C
   C19        1.0     0.161517      0.354218      0.499679     Biso  1.000000 C
   C20        1.0     0.917835      0.479681      0.920026     Biso  1.000000 C
   C21        1.0     0.916509      0.483035      0.079839     Biso  1.000000 C
   C22        1.0     0.838233      0.645561      0.500011     Biso  1.000000 C
   C23        1.0     0.836802      0.351893      0.500327     Biso  1.000000 C
   C24        1.0     0.164534      0.647685      0.499540     Biso  1.000000 C
   C25        1.0     0.684536      0.828502      0.370671     Biso  1.000000 C
   C26        1.0     0.315518      0.171713      0.630583     Biso  1.000000 C
   C27        1.0     0.315704      0.171764      0.369202     Biso  1.000000 C
   C28        1.0     0.684837      0.828240      0.632014     Biso  1.000000 C
   C29        1.0     0.729494      0.774837      0.336350     Biso  1.000000 C
   C30        1.0     0.270260      0.225285      0.664443     Biso  1.000000 C
   C31        1.0     0.270317      0.225247      0.335078     Biso  1.000000 C
   C32        1.0     0.729890      0.774525      0.665623     Biso  1.000000 C
   C33        1.0     0.765770      0.730539      0.423333     Biso  1.000000 C
   C34        1.0     0.233927      0.269357      0.577017     Biso  1.000000 C
   C35        1.0     0.233799      0.269302      0.422345     Biso  1.000000 C
   C36        1.0     0.765984      0.730398      0.578013     Biso  1.000000 C
   C37        1.0     0.733866      0.230719      0.577842     Biso  1.000000 C
   C38        1.0     0.266513      0.769282      0.421123     Biso  1.000000 C
   C39        1.0     0.266734      0.769447      0.575773     Biso  1.000000 C
   C40        1.0     0.734132      0.230593      0.423166     Biso  1.000000 C
   C41        1.0     0.419764      0.022713      0.079318     Biso  1.000000 C
   C42        1.0     0.425736      0.032545      0.921626     Biso  1.000000 C
   C43        1.0     0.770276      0.274830      0.665128     Biso  1.000000 C
   C44        1.0     0.230044      0.725046      0.334209     Biso  1.000000 C
   C45        1.0     0.230747      0.725307      0.663413     Biso  1.000000 C
   C46        1.0     0.770620      0.274599      0.335778     Biso  1.000000 C
   C47        1.0     0.311465      0.822613      0.617310     Biso  1.000000 C
   C48        1.0     0.689204      0.177603      0.381152     Biso  1.000000 C
   C49        1.0     0.688770      0.177780      0.619756     Biso  1.000000 C
   C50        1.0     0.311166      0.822355      0.378699     Biso  1.000000 C
   C51        1.0     0.188814      0.322273      0.380352     Biso  1.000000 C
   C52        1.0     0.810926      0.677327      0.619549     Biso  1.000000 C
   C53        1.0     0.810609      0.677545      0.380969     Biso  1.000000 C
   C54        1.0     0.567307      0.039949      0.078353     Biso  1.000000 C
   C55        1.0     0.575064      0.030748      0.920839     Biso  1.000000 C
   C56        1.0     0.189054      0.322392      0.618966     Biso  1.000000 C
   C57        1.0     0.815718      0.328297      0.631058     Biso  1.000000 C
   C58        1.0     0.184963      0.671450      0.368670     Biso  1.000000 C
   C59        1.0     0.185741      0.671549      0.629933     Biso  1.000000 C
   C60        1.0     0.815945      0.328130      0.369698     Biso  1.000000 C
   H1         1.0     0.660444      0.856754      0.284855     Biso  1.000000 H
   H2         1.0     0.339496      0.143524      0.716621     Biso  1.000000 H
   H3         1.0     0.661080      0.856359      0.718296     Biso  1.000000 H
   H4         1.0     0.324243      0.836928      0.723554     Biso  1.000000 H
   H5         1.0     0.676649      0.163349      0.274782     Biso  1.000000 H
   H6         1.0     0.675984      0.163688      0.726171     Biso  1.000000 H
   H7         1.0     0.323552      0.836491      0.272199     Biso  1.000000 H
   H8         1.0     0.176071      0.336436      0.273973     Biso  1.000000 H
   H9         1.0     0.823798      0.663049      0.725807     Biso  1.000000 H
   H10        1.0     0.823189      0.663489      0.274464     Biso  1.000000 H
   H11        1.0     0.176521      0.336639      0.725357     Biso  1.000000 H
   H12        1.0     0.839737      0.356461      0.717073     Biso  1.000000 H
   H13        1.0     0.160676      0.643282      0.282855     Biso  1.000000 H
   H14        1.0     0.162024      0.643457      0.716331     Biso  1.000000 H
   H15        1.0     0.840117      0.356157      0.283610     Biso  1.000000 H
   H16        1.0     0.737470      0.765807      0.225134     Biso  1.000000 H
   H17        1.0     0.262039      0.234402      0.775570     Biso  1.000000 H
   H18        1.0     0.262215      0.234307      0.223898     Biso  1.000000 H
   H19        1.0     0.738175      0.765343      0.776698     Biso  1.000000 H
   H20        1.0     0.762004      0.265828      0.776289     Biso  1.000000 H
   H21        1.0     0.237837      0.734069      0.222963     Biso  1.000000 H
   H22        1.0     0.238990      0.734538      0.774495     Biso  1.000000 H
   H23        1.0     0.762588      0.265396      0.224653     Biso  1.000000 H
   H24        1.0     0.404236      0.066565      0.134334     Biso  1.000000 H
   H25        1.0     0.372270      0.987632      0.107603     Biso  1.000000 H
   H26        1.0     0.432597      0.082564      0.893697     Biso  1.000000 H
   H27        1.0     0.370354      0.014774      0.867300     Biso  1.000000 H
   H28        1.0     0.625360      0.028321      0.132898     Biso  1.000000 H
   H29        1.0     0.551505      0.088785      0.106315     Biso  1.000000 H
   H30        1.0     0.628381      0.000774      0.892944     Biso  1.000000 H
   H31        1.0     0.582966      0.075631      0.865371     Biso  1.000000 H
   H32        1.0     0.437704      0.913493      0.892834     Biso  1.000000 H
   H33        1.0     0.546316      0.906661      0.866071     Biso  1.000000 H
   H34        1.0     0.576475      0.920503      0.106919     Biso  1.000000 H
   H35        1.0     0.469931      0.902881      0.134149     Biso  1.000000 H
   H36        1.0     0.124682      0.475529      0.881275     Biso  1.000000 H
   H37        1.0     0.054699      0.411514      0.872631     Biso  1.000000 H
   H38        1.0     0.121932      0.467143      0.126668     Biso  1.000000 H
   H39        1.0     0.044108      0.408545      0.118297     Biso  1.000000 H
   H40        1.0     0.082484      0.576216      0.118545     Biso  1.000000 H
   H41        1.0     0.976176      0.597756      0.127281     Biso  1.000000 H
   H42        1.0     0.073827      0.581729      0.872717     Biso  1.000000 H
   H43        1.0     0.965339      0.595547      0.881052     Biso  1.000000 H
   H44        1.0     0.869887      0.509831      0.872864     Biso  1.000000 H
   H45        1.0     0.907694      0.431520      0.881363     Biso  1.000000 H
   H46        1.0     0.872105      0.518338      0.118659     Biso  1.000000 H
   H47        1.0     0.339916      0.143697      0.283162     Biso  1.000000 H
   H48        1.0     0.899645      0.437619      0.127108     Biso  1.000000 H
   N1         1.0     0.500196      0.999215      0.133458     Biso  1.000000 N
   N2         1.0     0.499594      0.999159      0.866593     Biso  1.000000 N
   N3         1.0     0.999537      0.500810      0.133104     Biso  1.000000 N
   N4         1.0     0.999439      0.500864      0.866642     Biso  1.000000 N
