#======================================================================

# CRYSTAL DATA

#----------------------------------------------------------------------

data_VESTA_phase_1


_pd_phase_name                         'SCF Done            -245.07156537     '
_cell_length_a                         18.26925
_cell_length_b                         18.26925
_cell_length_c                         18.26925
_cell_angle_alpha                      60.00000
_cell_angle_beta                       60.00000
_cell_angle_gamma                      60.00000
_symmetry_space_group_name_H-M         'P 1'
_symmetry_Int_Tables_number            1

loop_
_symmetry_equiv_pos_as_xyz
   'x, y, z'

loop_
   _atom_site_label
   _atom_site_occupancy
   _atom_site_fract_x
   _atom_site_fract_y
   _atom_site_fract_z
   _atom_site_adp_type
   _atom_site_B_iso_or_equiv
   _atom_site_type_symbol
   Zn1        1.0     0.297866      0.297866      0.471540     Biso  1.000000 Zn
   Zn2        1.0     0.297866      0.297866      0.297866     Biso  1.000000 Zn
   Zn3        1.0     0.297866      0.471540      0.297866     Biso  1.000000 Zn
   Zn4        1.0     0.471540      0.297866      0.297866     Biso  1.000000 Zn
   Zn5        1.0     0.884703      0.884703      0.711029     Biso  1.000000 Zn
   Zn6        1.0     0.884703      0.884703      0.884703     Biso  1.000000 Zn
   Zn7        1.0     0.711029      0.884703      0.884703     Biso  1.000000 Zn
   Zn8        1.0     0.884703      0.711029      0.884703     Biso  1.000000 Zn
   O1         1.0     0.341285      0.341285      0.341285     Biso  1.000000 O
   O2         1.0     0.841284      0.841284      0.841284     Biso  1.000000 O
   O3         1.0     0.395453      0.224971      0.519740     Biso  1.000000 O
   O4         1.0     0.224972      0.395452      0.224972     Biso  1.000000 O
   O5         1.0     0.224972      0.519739      0.224972     Biso  1.000000 O
   O6         1.0     0.519740      0.224971      0.395453     Biso  1.000000 O
   O7         1.0     0.519740      0.395453      0.224971     Biso  1.000000 O
   O8         1.0     0.224971      0.519740      0.395453     Biso  1.000000 O
   O9         1.0     0.395453      0.519740      0.224971     Biso  1.000000 O
   O10        1.0     0.395452      0.224972      0.224972     Biso  1.000000 O
   O11        1.0     0.224972      0.224972      0.395452     Biso  1.000000 O
   O12        1.0     0.519739      0.224972      0.224972     Biso  1.000000 O
   O13        1.0     0.224972      0.224972      0.519739     Biso  1.000000 O
   O14        1.0     0.224971      0.395453      0.519740     Biso  1.000000 O
   O15        1.0     0.957598      0.787115      0.662829     Biso  1.000000 O
   O16        1.0     0.787116      0.957596      0.957596     Biso  1.000000 O
   O17        1.0     0.662830      0.957596      0.957596     Biso  1.000000 O
   O18        1.0     0.957598      0.662829      0.787115     Biso  1.000000 O
   O19        1.0     0.787115      0.662829      0.957598     Biso  1.000000 O
   O20        1.0     0.662829      0.957598      0.787115     Biso  1.000000 O
   O21        1.0     0.662829      0.787115      0.957598     Biso  1.000000 O
   O22        1.0     0.957596      0.787116      0.957596     Biso  1.000000 O
   O23        1.0     0.957596      0.957596      0.787116     Biso  1.000000 O
   O24        1.0     0.957596      0.662830      0.957596     Biso  1.000000 O
   O25        1.0     0.957596      0.957596      0.662830     Biso  1.000000 O
   O26        1.0     0.787115      0.957598      0.662829     Biso  1.000000 O
   C1         1.0     0.479874      0.202695      0.479874     Biso  1.000000 C
   C2         1.0     0.202694      0.479875      0.202694     Biso  1.000000 C
   C3         1.0     0.479874      0.479874      0.202695     Biso  1.000000 C
   C4         1.0     0.202695      0.479874      0.479874     Biso  1.000000 C
   C5         1.0     0.479875      0.202694      0.202694     Biso  1.000000 C
   C6         1.0     0.202694      0.202694      0.479875     Biso  1.000000 C
   C7         1.0     0.979873      0.702695      0.702695     Biso  1.000000 C
   C8         1.0     0.702694      0.979875      0.979875     Biso  1.000000 C
   C9         1.0     0.702695      0.702695      0.979873     Biso  1.000000 C
   C10        1.0     0.702695      0.979873      0.702695     Biso  1.000000 C
   C11        1.0     0.979875      0.702694      0.979875     Biso  1.000000 C
   C12        1.0     0.979875      0.979875      0.702694     Biso  1.000000 C
   C13        1.0     0.537467      0.145102      0.537467     Biso  1.000000 C
   C14        1.0     0.145101      0.537468      0.145101     Biso  1.000000 C
   C15        1.0     0.537467      0.537467      0.145102     Biso  1.000000 C
   C16        1.0     0.145102      0.537467      0.537467     Biso  1.000000 C
   C17        1.0     0.537468      0.145101      0.145101     Biso  1.000000 C
   C18        1.0     0.145101      0.145101      0.537468     Biso  1.000000 C
   C19        1.0     0.037466      0.645102      0.645102     Biso  1.000000 C
   C20        1.0     0.645101      0.037467      0.037467     Biso  1.000000 C
   C21        1.0     0.645102      0.645102      0.037466     Biso  1.000000 C
   C22        1.0     0.645102      0.037466      0.645102     Biso  1.000000 C
   C23        1.0     0.037467      0.645101      0.037467     Biso  1.000000 C
   C24        1.0     0.037467      0.037467      0.645101     Biso  1.000000 C
   C25        1.0     0.498017      0.118131      0.630860     Biso  1.000000 C
   C26        1.0     0.118131      0.498017      0.118131     Biso  1.000000 C
   C27        1.0     0.118131      0.630860      0.118131     Biso  1.000000 C
   C28        1.0     0.630860      0.118131      0.498017     Biso  1.000000 C
   C29        1.0     0.630860      0.498017      0.118131     Biso  1.000000 C
   C30        1.0     0.118131      0.630860      0.498017     Biso  1.000000 C
   C31        1.0     0.498017      0.630860      0.118131     Biso  1.000000 C
   C32        1.0     0.498017      0.118131      0.118131     Biso  1.000000 C
   C33        1.0     0.118131      0.118131      0.498017     Biso  1.000000 C
   C34        1.0     0.630860      0.118131      0.118131     Biso  1.000000 C
   C35        1.0     0.118131      0.118131      0.630860     Biso  1.000000 C
   C36        1.0     0.118131      0.498017      0.630860     Biso  1.000000 C
   C37        1.0     0.064438      0.684552      0.551709     Biso  1.000000 C
   C38        1.0     0.684552      0.064438      0.064438     Biso  1.000000 C
   C39        1.0     0.551709      0.064438      0.064438     Biso  1.000000 C
   C40        1.0     0.064438      0.551709      0.684552     Biso  1.000000 C
   C41        1.0     0.684552      0.551709      0.064438     Biso  1.000000 C
   C42        1.0     0.551709      0.064438      0.684552     Biso  1.000000 C
   C43        1.0     0.551709      0.684552      0.064438     Biso  1.000000 C
   C44        1.0     0.064438      0.684552      0.064438     Biso  1.000000 C
   C45        1.0     0.064438      0.064438      0.684552     Biso  1.000000 C
   C46        1.0     0.064438      0.551709      0.064438     Biso  1.000000 C
   C47        1.0     0.064438      0.064438      0.551709     Biso  1.000000 C
   C48        1.0     0.684552      0.064438      0.551709     Biso  1.000000 C
   H1         1.0     0.424900      0.140176      0.659886     Biso  1.000000 H
   H2         1.0     0.140176      0.424900      0.140176     Biso  1.000000 H
   H3         1.0     0.140176      0.659886      0.140176     Biso  1.000000 H
   H4         1.0     0.659886      0.140176      0.424900     Biso  1.000000 H
   H5         1.0     0.659886      0.424900      0.140176     Biso  1.000000 H
   H6         1.0     0.140176      0.659886      0.424900     Biso  1.000000 H
   H7         1.0     0.424900      0.659886      0.140176     Biso  1.000000 H
   H8         1.0     0.424900      0.140176      0.140176     Biso  1.000000 H
   H9         1.0     0.140176      0.140176      0.424900     Biso  1.000000 H
   H10        1.0     0.659886      0.140176      0.140176     Biso  1.000000 H
   H11        1.0     0.140176      0.140176      0.659886     Biso  1.000000 H
   H12        1.0     0.140176      0.424900      0.659886     Biso  1.000000 H
   H13        1.0     0.042392      0.757669      0.522683     Biso  1.000000 H
   H14        1.0     0.757669      0.042392      0.042392     Biso  1.000000 H
   H15        1.0     0.522683      0.042392      0.042392     Biso  1.000000 H
   H16        1.0     0.042392      0.522683      0.757669     Biso  1.000000 H
   H17        1.0     0.757669      0.522683      0.042392     Biso  1.000000 H
   H18        1.0     0.522683      0.042392      0.757669     Biso  1.000000 H
   H19        1.0     0.522683      0.757669      0.042392     Biso  1.000000 H
   H20        1.0     0.042392      0.757669      0.042392     Biso  1.000000 H
   H21        1.0     0.042392      0.042392      0.757669     Biso  1.000000 H
   H22        1.0     0.042392      0.522683      0.042392     Biso  1.000000 H
   H23        1.0     0.042392      0.042392      0.522683     Biso  1.000000 H
   H24        1.0     0.757669      0.042392      0.522683     Biso  1.000000 H
