#======================================================================

# CRYSTAL DATA

#----------------------------------------------------------------------

data_VESTA_phase_1


_pd_phase_name                         'MOF646                                '
_cell_length_a                         17.56654
_cell_length_b                         17.19066
_cell_length_c                         17.19910
_cell_angle_alpha                      90
_cell_angle_beta                       88.71318
_cell_angle_gamma                      90
_symmetry_space_group_name_H-M         'P 1'
_symmetry_Int_Tables_number            1

loop_
_symmetry_equiv_pos_as_xyz
   'x, y, z'

loop_
   _atom_site_label
   _atom_site_occupancy
   _atom_site_fract_x
   _atom_site_fract_y
   _atom_site_fract_z
   _atom_site_adp_type
   _atom_site_B_iso_or_equiv
   _atom_site_type_symbol
   C1         1.0     0.009748      0.450670      0.942283     Biso  1.000000 C
   C2         1.0     0.027834      0.950889      0.019508     Biso  1.000000 C
   C3         1.0     0.075146      0.398539      0.932907     Biso  1.000000 C
   C4         1.0     0.962668      0.898646      0.028984     Biso  1.000000 C
   C5         1.0     0.080918      0.328199      0.973869     Biso  1.000000 C
   C6         1.0     0.957287      0.828054      0.988397     Biso  1.000000 C
   C7         1.0     0.147928      0.288976      0.951542     Biso  1.000000 C
   C8         1.0     0.890626      0.788469      0.011098     Biso  1.000000 C
   C9         1.0     0.186946      0.334877      0.894254     Biso  1.000000 C
   C10        1.0     0.851471      0.834484      0.068205     Biso  1.000000 C
   C11        1.0     0.139902      0.404450      0.881574     Biso  1.000000 C
   C12        1.0     0.897911      0.904571      0.080267     Biso  1.000000 C
   C13        1.0     0.255455      0.314642      0.856995     Biso  1.000000 C
   C14        1.0     0.783471      0.813772      0.106124     Biso  1.000000 C
   C15        1.0     0.296035      0.354328      0.798910     Biso  1.000000 C
   C16        1.0     0.742757      0.854013      0.163601     Biso  1.000000 C
   C17        1.0     0.278205      0.424477      0.762931     Biso  1.000000 C
   C18        1.0     0.759720      0.925163      0.198130     Biso  1.000000 C
   C19        1.0     0.215501      0.472845      0.776243     Biso  1.000000 C
   C20        1.0     0.821833      0.974222      0.184202     Biso  1.000000 C
   C21        1.0     0.154436      0.464324      0.828773     Biso  1.000000 C
   C22        1.0     0.883117      0.965249      0.132052     Biso  1.000000 C
   C23        1.0     0.168942      0.212161      0.980516     Biso  1.000000 C
   C24        1.0     0.869546      0.711609      0.982180     Biso  1.000000 C
   C25        1.0     0.773214      0.482731      0.123419     Biso  1.000000 C
   C26        1.0     0.263795      0.982375      0.840731     Biso  1.000000 C
   C27        1.0     0.758837      0.464926      0.205489     Biso  1.000000 C
   C28        1.0     0.276448      0.964677      0.758452     Biso  1.000000 C
   C29        1.0     0.774147      0.391377      0.236330     Biso  1.000000 C
   C30        1.0     0.260678      0.891064      0.727979     Biso  1.000000 C
   C31        1.0     0.749725      0.387737      0.314287     Biso  1.000000 C
   C32        1.0     0.283557      0.887438      0.649560     Biso  1.000000 C
   C33        1.0     0.718588      0.461603      0.335454     Biso  1.000000 C
   C34        1.0     0.314303      0.961318      0.627780     Biso  1.000000 C
   C35        1.0     0.725161      0.511457      0.265715     Biso  1.000000 C
   C36        1.0     0.308723      0.011231      0.697494     Biso  1.000000 C
   C37        1.0     0.687530      0.481038      0.408164     Biso  1.000000 C
   C38        1.0     0.344625      0.980632      0.554696     Biso  1.000000 C
   C39        1.0     0.656996      0.551840      0.433272     Biso  1.000000 C
   C40        1.0     0.374978      0.051387      0.529211     Biso  1.000000 C
   C41        1.0     0.650569      0.621441      0.392252     Biso  1.000000 C
   C42        1.0     0.381534      0.121154      0.569977     Biso  1.000000 C
   C43        1.0     0.671586      0.638080      0.315323     Biso  1.000000 C
   C44        1.0     0.361157      0.137979      0.647040     Biso  1.000000 C
   C45        1.0     0.703949      0.589211      0.258967     Biso  1.000000 C
   C46        1.0     0.329603      0.089102      0.703867     Biso  1.000000 C
   C47        1.0     0.753355      0.315552      0.358627     Biso  1.000000 C
   C48        1.0     0.279670      0.815040      0.605624     Biso  1.000000 C
   C49        1.0     0.809788      0.328344      0.854577     Biso  1.000000 C
   C50        1.0     0.228123      0.828843      0.110044     Biso  1.000000 C
   C51        1.0     0.826153      0.264721      0.800191     Biso  1.000000 C
   C52        1.0     0.211350      0.764782      0.163797     Biso  1.000000 C
   C53        1.0     0.788123      0.257376      0.729675     Biso  1.000000 C
   C54        1.0     0.247946      0.757227      0.235021     Biso  1.000000 C
   C55        1.0     0.815528      0.192747      0.688081     Biso  1.000000 C
   C56        1.0     0.219977      0.692330      0.275747     Biso  1.000000 C
   C57        1.0     0.873526      0.156866      0.732670     Biso  1.000000 C
   C58        1.0     0.162924      0.656440      0.229924     Biso  1.000000 C
   C59        1.0     0.880645      0.203226      0.804217     Biso  1.000000 C
   C60        1.0     0.157232      0.702986      0.158325     Biso  1.000000 C
   C61        1.0     0.915373      0.091091      0.710991     Biso  1.000000 C
   C62        1.0     0.120406      0.590782      0.250688     Biso  1.000000 C
   C63        1.0     0.972395      0.052845      0.751231     Biso  1.000000 C
   C64        1.0     0.064492      0.552428      0.208983     Biso  1.000000 C
   C65        1.0     0.003140      0.070910      0.823161     Biso  1.000000 C
   C66        1.0     0.035990      0.570024      0.135953     Biso  1.000000 C
   C67        1.0     0.985418      0.132749      0.872945     Biso  1.000000 C
   C68        1.0     0.054990      0.631731      0.086546     Biso  1.000000 C
   C69        1.0     0.931300      0.191375      0.864366     Biso  1.000000 C
   C70        1.0     0.108323      0.690785      0.096769     Biso  1.000000 C
   C71        1.0     0.786625      0.170530      0.612143     Biso  1.000000 C
   C72        1.0     0.248000      0.669798      0.351877     Biso  1.000000 C
   C73        1.0     0.878189      0.545433      0.735077     Biso  1.000000 C
   C74        1.0     0.156228      0.045477      0.228228     Biso  1.000000 C
   C75        1.0     0.934046      0.528866      0.673539     Biso  1.000000 C
   C76        1.0     0.100050      0.028625      0.289407     Biso  1.000000 C
   C77        1.0     0.006503      0.563103      0.671345     Biso  1.000000 C
   C78        1.0     0.027732      0.063088      0.291576     Biso  1.000000 C
   C79        1.0     0.050401      0.531991      0.609982     Biso  1.000000 C
   C80        1.0     0.983606      0.031876      0.352766     Biso  1.000000 C
   C81        1.0     0.005060      0.475811      0.570761     Biso  1.000000 C
   C82        1.0     0.028524      0.975217      0.391739     Biso  1.000000 C
   C83        1.0     0.930713      0.473505      0.611951     Biso  1.000000 C
   C84        1.0     0.102953      0.972955      0.350750     Biso  1.000000 C
   C85        1.0     0.028141      0.431206      0.506773     Biso  1.000000 C
   C86        1.0     0.004877      0.929995      0.455178     Biso  1.000000 C
   C87        1.0     0.987494      0.374935      0.466559     Biso  1.000000 C
   C88        1.0     0.045103      0.873291      0.495144     Biso  1.000000 C
   C89        1.0     0.913533      0.347988      0.480299     Biso  1.000000 C
   C90        1.0     0.119245      0.846592      0.481779     Biso  1.000000 C
   C91        1.0     0.860928      0.370350      0.538104     Biso  1.000000 C
   C92        1.0     0.172151      0.869323      0.424507     Biso  1.000000 C
   C93        1.0     0.868607      0.426051      0.596256     Biso  1.000000 C
   C94        1.0     0.164862      0.925268      0.366470     Biso  1.000000 C
   C95        1.0     0.129107      0.554876      0.593260     Biso  1.000000 C
   C96        1.0     0.905135      0.055216      0.369804     Biso  1.000000 C
   C97        1.0     0.621320      0.566886      0.891307     Biso  1.000000 C
   C98        1.0     0.415233      0.067458      0.072367     Biso  1.000000 C
   C99        1.0     0.541148      0.583760      0.876613     Biso  1.000000 C
   C100       1.0     0.495341      0.083860      0.087412     Biso  1.000000 C
   C101       1.0     0.507387      0.569989      0.804712     Biso  1.000000 C
   C102       1.0     0.528574      0.070044      0.159549     Biso  1.000000 C
   C103       1.0     0.431743      0.596473      0.805908     Biso  1.000000 C
   C104       1.0     0.604326      0.095892      0.158630     Biso  1.000000 C
   C105       1.0     0.384230      0.592574      0.736974     Biso  1.000000 C
   C106       1.0     0.651375      0.091942      0.227800     Biso  1.000000 C
   C107       1.0     0.484674      0.617532      0.927273     Biso  1.000000 C
   C108       1.0     0.552336      0.116974      0.036869     Biso  1.000000 C
   C109       1.0     0.494195      0.635623      0.005506     Biso  1.000000 C
   C110       1.0     0.543447      0.134880      0.958509     Biso  1.000000 C
   C111       1.0     0.441280      0.665651      0.059133     Biso  1.000000 C
   C112       1.0     0.597052      0.164114      0.905087     Biso  1.000000 C
   C113       1.0     0.365676      0.686928      0.048106     Biso  1.000000 C
   C114       1.0     0.672796      0.184614      0.916560     Biso  1.000000 C
   C115       1.0     0.323185      0.683671      0.980560     Biso  1.000000 C
   C116       1.0     0.714797      0.181249      0.984412     Biso  1.000000 C
   C117       1.0     0.345048      0.656689      0.906902     Biso  1.000000 C
   C118       1.0     0.692178      0.154857      0.058039     Biso  1.000000 C
   C119       1.0     0.414976      0.626387      0.881774     Biso  1.000000 C
   C120       1.0     0.621772      0.125397      0.082754     Biso  1.000000 C
   C121       1.0     0.369165      0.433477      0.473354     Biso  1.000000 C
   C122       1.0     0.665451      0.933940      0.491831     Biso  1.000000 C
   C123       1.0     0.392707      0.357396      0.443959     Biso  1.000000 C
   C124       1.0     0.641570      0.857912      0.520993     Biso  1.000000 C
   C125       1.0     0.459339      0.320425      0.467464     Biso  1.000000 C
   C126       1.0     0.574802      0.821305      0.497168     Biso  1.000000 C
   C127       1.0     0.468417      0.249462      0.428193     Biso  1.000000 C
   C128       1.0     0.565389      0.750261      0.536103     Biso  1.000000 C
   C129       1.0     0.406504      0.240817      0.376346     Biso  1.000000 C
   C130       1.0     0.627025      0.741152      0.588141     Biso  1.000000 C
   C131       1.0     0.357153      0.309269      0.387678     Biso  1.000000 C
   C132       1.0     0.676671      0.809476      0.577258     Biso  1.000000 C
   C133       1.0     0.397810      0.180940      0.322630     Biso  1.000000 C
   C134       1.0     0.635247      0.681064      0.641723     Biso  1.000000 C
   C135       1.0     0.339733      0.169168      0.269890     Biso  1.000000 C
   C136       1.0     0.693035      0.668799      0.694652     Biso  1.000000 C
   C137       1.0     0.273872      0.212857      0.259042     Biso  1.000000 C
   C138       1.0     0.758900      0.712346      0.706149     Biso  1.000000 C
   C139       1.0     0.250682      0.281299      0.296189     Biso  1.000000 C
   C140       1.0     0.782301      0.781022      0.669527     Biso  1.000000 C
   C141       1.0     0.288136      0.324683      0.352154     Biso  1.000000 C
   C142       1.0     0.745376      0.824688      0.613441     Biso  1.000000 C
   C143       1.0     0.533414      0.198319      0.440521     Biso  1.000000 C
   C144       1.0     0.500318      0.699438      0.523224     Biso  1.000000 C
   H1         1.0     0.039129      0.307276      0.016908     Biso  1.000000 H
   H2         1.0     0.999238      0.807261      0.945493     Biso  1.000000 H
   H3         1.0     0.279743      0.259731      0.877248     Biso  1.000000 H
   H4         1.0     0.759799      0.758213      0.086656     Biso  1.000000 H
   H5         1.0     0.349080      0.326508      0.778628     Biso  1.000000 H
   H6         1.0     0.690013      0.826141      0.184557     Biso  1.000000 H
   H7         1.0     0.319328      0.444585      0.718231     Biso  1.000000 H
   H8         1.0     0.718273      0.945490      0.242304     Biso  1.000000 H
   H9         1.0     0.213281      0.525152      0.739990     Biso  1.000000 H
   H10        1.0     0.823095      0.027254      0.219500     Biso  1.000000 H
   H11        1.0     0.110937      0.510120      0.828537     Biso  1.000000 H
   H12        1.0     0.926367      0.011283      0.131339     Biso  1.000000 H
   H13        1.0     0.799720      0.343248      0.203737     Biso  1.000000 H
   H14        1.0     0.235889      0.842946      0.761170     Biso  1.000000 H
   H15        1.0     0.687218      0.433272      0.450439     Biso  1.000000 H
   H16        1.0     0.344590      0.932784      0.512505     Biso  1.000000 H
   H17        1.0     0.634988      0.553229      0.493447     Biso  1.000000 H
   H18        1.0     0.396490      0.052660      0.468878     Biso  1.000000 H
   H19        1.0     0.625225      0.670010      0.425308     Biso  1.000000 H
   H20        1.0     0.406408      0.169695      0.536577     Biso  1.000000 H
   H21        1.0     0.660610      0.697940      0.296456     Biso  1.000000 H
   H22        1.0     0.372057      0.197906      0.665550     Biso  1.000000 H
   H23        1.0     0.714873      0.614137      0.201063     Biso  1.000000 H
   H24        1.0     0.319214      0.114117      0.761794     Biso  1.000000 H
   H25        1.0     0.743410      0.296361      0.710120     Biso  1.000000 H
   H26        1.0     0.292122      0.796235      0.255633     Biso  1.000000 H
   H27        1.0     0.900221      0.066801      0.654466     Biso  1.000000 H
   H28        1.0     0.134023      0.566557      0.307726     Biso  1.000000 H
   H29        1.0     0.996657      0.001482      0.722096     Biso  1.000000 H
   H30        1.0     0.039345      0.501248      0.237660     Biso  1.000000 H
   H31        1.0     0.047327      0.031067      0.843421     Biso  1.000000 H
   H32        1.0     0.992627      0.529932      0.114321     Biso  1.000000 H
   H33        1.0     0.018683      0.136161      0.926109     Biso  1.000000 H
   H34        1.0     0.023338      0.634884      0.032320     Biso  1.000000 H
   H35        1.0     0.927263      0.234823      0.910992     Biso  1.000000 H
   H36        1.0     0.113405      0.734316      0.050278     Biso  1.000000 H
   H37        1.0     0.025679      0.607266      0.712102     Biso  1.000000 H
   H38        1.0     0.008685      0.107447      0.251023     Biso  1.000000 H
   H39        1.0     0.086515      0.442948      0.486049     Biso  1.000000 H
   H40        1.0     0.946427      0.941710      0.475563     Biso  1.000000 H
   H41        1.0     0.018236      0.347707      0.417496     Biso  1.000000 H
   H42        1.0     0.013993      0.845618      0.543722     Biso  1.000000 H
   H43        1.0     0.894000      0.302817      0.440215     Biso  1.000000 H
   H44        1.0     0.138604      0.801266      0.521746     Biso  1.000000 H
   H45        1.0     0.806157      0.339789      0.537646     Biso  1.000000 H
   H46        1.0     0.226981      0.838920      0.425258     Biso  1.000000 H
   H47        1.0     0.819733      0.434278      0.636195     Biso  1.000000 H
   H48        1.0     0.213946      0.933704      0.326821     Biso  1.000000 H
   H49        1.0     0.536039      0.543275      0.754430     Biso  1.000000 H
   H50        1.0     0.499539      0.043683      0.209742     Biso  1.000000 H
   H51        1.0     0.551357      0.623579      0.026886     Biso  1.000000 H
   H52        1.0     0.486365      0.123339      0.936689     Biso  1.000000 H
   H53        1.0     0.462014      0.673683      0.118241     Biso  1.000000 H
   H54        1.0     0.576832      0.172134      0.845783     Biso  1.000000 H
   H55        1.0     0.335224      0.709599      0.099782     Biso  1.000000 H
   H56        1.0     0.703842      0.206630      0.865000     Biso  1.000000 H
   H57        1.0     0.264517      0.705205      0.986408     Biso  1.000000 H
   H58        1.0     0.773735      0.201962      0.978897     Biso  1.000000 H
   H59        1.0     0.301904      0.659014      0.861817     Biso  1.000000 H
   H60        1.0     0.734942      0.156842      0.103474     Biso  1.000000 H
   H61        1.0     0.498661      0.343494      0.509897     Biso  1.000000 H
   H62        1.0     0.535717      0.844684      0.454668     Biso  1.000000 H
   H63        1.0     0.443948      0.137938      0.322207     Biso  1.000000 H
   H64        1.0     0.588955      0.638208      0.641728     Biso  1.000000 H
   H65        1.0     0.346622      0.117971      0.232242     Biso  1.000000 H
   H66        1.0     0.685938      0.617417      0.732002     Biso  1.000000 H
   H67        1.0     0.234834      0.190092      0.215485     Biso  1.000000 H
   H68        1.0     0.797682      0.689327      0.749752     Biso  1.000000 H
   H69        1.0     0.195925      0.304943      0.277958     Biso  1.000000 H
   H70        1.0     0.836894      0.804561      0.688428     Biso  1.000000 H
   H71        1.0     0.260545      0.378613      0.371868     Biso  1.000000 H
   H72        1.0     0.773219      0.878657      0.594223     Biso  1.000000 H
   O1         1.0     0.819912      0.518349      0.923829     Biso  1.000000 O
   O2         1.0     0.217070      0.019124      0.039970     Biso  1.000000 O
   O3         1.0     0.003295      0.509439      0.896571     Biso  1.000000 O
   O4         1.0     0.033551      0.010250      0.064592     Biso  1.000000 O
   O5         1.0     0.961104      0.434291      0.996537     Biso  1.000000 O
   O6         1.0     0.077119      0.934003      0.966115     Biso  1.000000 O
   O7         1.0     0.115558      0.173398      0.015066     Biso  1.000000 O
   O8         1.0     0.922772      0.672948      0.947282     Biso  1.000000 O
   O9         1.0     0.237354      0.188283      0.969828     Biso  1.000000 O
   O10        1.0     0.801229      0.687628      0.993281     Biso  1.000000 O
   O11        1.0     0.803432      0.427728      0.082998     Biso  1.000000 O
   O12        1.0     0.235841      0.926813      0.882000     Biso  1.000000 O
   O13        1.0     0.754380      0.549607      0.097067     Biso  1.000000 O
   O14        1.0     0.281878      0.049704      0.866449     Biso  1.000000 O
   O15        1.0     0.790821      0.259825      0.326698     Biso  1.000000 O
   O16        1.0     0.243383      0.759074      0.638544     Biso  1.000000 O
   O17        1.0     0.719349      0.311468      0.425402     Biso  1.000000 O
   O18        1.0     0.312447      0.811113      0.538237     Biso  1.000000 O
   O19        1.0     0.848158      0.333570      0.917222     Biso  1.000000 O
   O20        1.0     0.190598      0.833993      0.046864     Biso  1.000000 O
   O21        1.0     0.756866      0.375460      0.836152     Biso  1.000000 O
   O22        1.0     0.280297      0.876363      0.129571     Biso  1.000000 O
   O23        1.0     0.810316      0.107227      0.580787     Biso  1.000000 O
   O24        1.0     0.223916      0.606471      0.382868     Biso  1.000000 O
   O25        1.0     0.738564      0.217115      0.581872     Biso  1.000000 O
   O26        1.0     0.295907      0.716184      0.382646     Biso  1.000000 O
   O27        1.0     0.815310      0.507293      0.737593     Biso  1.000000 O
   O28        1.0     0.219401      0.007850      0.226041     Biso  1.000000 O
   O29        1.0     0.895379      0.597722      0.785028     Biso  1.000000 O
   O30        1.0     0.138934      0.097688      0.178248     Biso  1.000000 O
   O31        1.0     0.161247      0.528615      0.531201     Biso  1.000000 O
   O32        1.0     0.873083      0.029196      0.432022     Biso  1.000000 O
   O33        1.0     0.160864      0.599875      0.642578     Biso  1.000000 O
   O34        1.0     0.873600      0.100553      0.320734     Biso  1.000000 O
   O35        1.0     0.658429      0.531953      0.836426     Biso  1.000000 O
   O36        1.0     0.377480      0.033761      0.127571     Biso  1.000000 O
   O37        1.0     0.650036      0.588239      0.955756     Biso  1.000000 O
   O38        1.0     0.387252      0.087884      0.007265     Biso  1.000000 O
   O39        1.0     0.409063      0.548895      0.681728     Biso  1.000000 O
   O40        1.0     0.626615      0.047901      0.282821     Biso  1.000000 O
   O41        1.0     0.321821      0.631667      0.734492     Biso  1.000000 O
   O42        1.0     0.713354      0.131579      0.230570     Biso  1.000000 O
   O43        1.0     0.316710      0.623004      0.544760     Biso  1.000000 O
   O44        1.0     0.717640      0.123411      0.419876     Biso  1.000000 O
   O45        1.0     0.306320      0.462144      0.450324     Biso  1.000000 O
   O46        1.0     0.728701      0.962076      0.514427     Biso  1.000000 O
   O47        1.0     0.414446      0.466530      0.520499     Biso  1.000000 O
   O48        1.0     0.620033      0.967386      0.445189     Biso  1.000000 O
   O49        1.0     0.536639      0.133158      0.404004     Biso  1.000000 O
   O50        1.0     0.497250      0.633713      0.558681     Biso  1.000000 O
   O51        1.0     0.582990      0.221907      0.488445     Biso  1.000000 O
   O52        1.0     0.450551      0.723852      0.475926     Biso  1.000000 O
   Zn1        1.0     0.912299      0.574823      0.894511     Biso  1.000000 Zn
   Zn2        1.0     0.124443      0.075445      0.068262     Biso  1.000000 Zn
   Zn3        1.0     0.850783      0.426898      0.981470     Biso  1.000000 Zn
   Zn4        1.0     0.187040      0.927147      0.982714     Biso  1.000000 Zn
   Zn5        1.0     0.755616      0.583883      0.988976     Biso  1.000000 Zn
   Zn6        1.0     0.281704      0.084044      0.974498     Biso  1.000000 Zn
   Zn7        1.0     0.759826      0.489002      0.835363     Biso  1.000000 Zn
   Zn8        1.0     0.276407      0.989942      0.129005     Biso  1.000000 Zn
   Zn9        1.0     0.408694      0.566644      0.569681     Biso  1.000000 Zn
   Zn10       1.0     0.625800      0.066826      0.394688     Biso  1.000000 Zn
   Zn11       1.0     0.261345      0.647569      0.640872     Biso  1.000000 Zn
   Zn12       1.0     0.773330      0.148275      0.324192     Biso  1.000000 Zn
   Zn13       1.0     0.340597      0.715342      0.484194     Biso  1.000000 Zn
   Zn14       1.0     0.693218      0.215578      0.480505     Biso  1.000000 Zn
   Zn15       1.0     0.255608      0.558139      0.479110     Biso  1.000000 Zn
   Zn16       1.0     0.778911      0.058131      0.484895     Biso  1.000000 Zn
