#======================================================================

# CRYSTAL DATA

#----------------------------------------------------------------------

data_VESTA_phase_1


_pd_phase_name                         'H C O Zr                              '
_cell_length_a                         14.25410
_cell_length_b                         14.25410
_cell_length_c                         14.25414
_cell_angle_alpha                      59.99854
_cell_angle_beta                       59.99854
_cell_angle_gamma                      59.99916
_symmetry_space_group_name_H-M         'P 1'
_symmetry_Int_Tables_number            1

loop_
_symmetry_equiv_pos_as_xyz
   'x, y, z'

loop_
   _atom_site_label
   _atom_site_occupancy
   _atom_site_fract_x
   _atom_site_fract_y
   _atom_site_fract_z
   _atom_site_adp_type
   _atom_site_B_iso_or_equiv
   _atom_site_type_symbol
   H1         1.0     0.157056      0.582225      0.404499     Biso  1.000000 H
   H2         1.0     0.582382      0.156946      0.855982     Biso  1.000000 H
   H3         1.0     0.404627      0.855959      0.156972     Biso  1.000000 H
   H4         1.0     0.856082      0.404452      0.582255     Biso  1.000000 H
   H5         1.0     0.404456      0.157056      0.582267     Biso  1.000000 H
   H6         1.0     0.855960      0.582378      0.156972     Biso  1.000000 H
   H7         1.0     0.156946      0.404630      0.855981     Biso  1.000000 H
   H8         1.0     0.582209      0.856081      0.404500     Biso  1.000000 H
   H9         1.0     0.582242      0.404474      0.157073     Biso  1.000000 H
   H10        1.0     0.156953      0.855968      0.582405     Biso  1.000000 H
   H11        1.0     0.855968      0.156954      0.404653     Biso  1.000000 H
   H12        1.0     0.404475      0.582229      0.856098     Biso  1.000000 H
   H13        1.0     0.582225      0.157056      0.404499     Biso  1.000000 H
   H14        1.0     0.156946      0.582382      0.855982     Biso  1.000000 H
   H15        1.0     0.855959      0.404627      0.156972     Biso  1.000000 H
   H16        1.0     0.404452      0.856082      0.582255     Biso  1.000000 H
   H17        1.0     0.157056      0.404456      0.582267     Biso  1.000000 H
   H18        1.0     0.582378      0.855960      0.156972     Biso  1.000000 H
   H19        1.0     0.404630      0.156946      0.855981     Biso  1.000000 H
   H20        1.0     0.856081      0.582209      0.404500     Biso  1.000000 H
   H21        1.0     0.404474      0.582242      0.157073     Biso  1.000000 H
   H22        1.0     0.855968      0.156953      0.582405     Biso  1.000000 H
   H23        1.0     0.156954      0.855968      0.404653     Biso  1.000000 H
   H24        1.0     0.582229      0.404475      0.856098     Biso  1.000000 H
   H25        1.0     0.906863      0.906863      0.279361     Biso  1.000000 H
   H26        1.0     0.906862      0.906862      0.906905     Biso  1.000000 H
   H27        1.0     0.279314      0.906867      0.906907     Biso  1.000000 H
   H28        1.0     0.906867      0.279314      0.906907     Biso  1.000000 H
   C1         1.0     0.091907      0.541837      0.444574     Biso  1.000000 C
   C2         1.0     0.541998      0.091794      0.921453     Biso  1.000000 C
   C3         1.0     0.444690      0.921430      0.091818     Biso  1.000000 C
   C4         1.0     0.921549      0.444522      0.541877     Biso  1.000000 C
   C5         1.0     0.444530      0.091905      0.541880     Biso  1.000000 C
   C6         1.0     0.921431      0.541996      0.091816     Biso  1.000000 C
   C7         1.0     0.091790      0.444693      0.921454     Biso  1.000000 C
   C8         1.0     0.541831      0.921550      0.444568     Biso  1.000000 C
   C9         1.0     0.541855      0.444549      0.091923     Biso  1.000000 C
   C10        1.0     0.091799      0.921438      0.542023     Biso  1.000000 C
   C11        1.0     0.921438      0.091799      0.444717     Biso  1.000000 C
   C12        1.0     0.444542      0.541851      0.921566     Biso  1.000000 C
   C13        1.0     0.541837      0.091907      0.444574     Biso  1.000000 C
   C14        1.0     0.091794      0.541998      0.921453     Biso  1.000000 C
   C15        1.0     0.921430      0.444690      0.091818     Biso  1.000000 C
   C16        1.0     0.444522      0.921549      0.541877     Biso  1.000000 C
   C17        1.0     0.091905      0.444530      0.541880     Biso  1.000000 C
   C18        1.0     0.541996      0.921431      0.091816     Biso  1.000000 C
   C19        1.0     0.444693      0.091790      0.921454     Biso  1.000000 C
   C20        1.0     0.921550      0.541831      0.444568     Biso  1.000000 C
   C21        1.0     0.444549      0.541855      0.091923     Biso  1.000000 C
   C22        1.0     0.921438      0.091799      0.542023     Biso  1.000000 C
   C23        1.0     0.091799      0.921438      0.444717     Biso  1.000000 C
   C24        1.0     0.541851      0.444542      0.921566     Biso  1.000000 C
   C25        1.0     0.294292      0.003979      0.004014     Biso  1.000000 C
   C26        1.0     0.004010      0.294234      0.697628     Biso  1.000000 C
   C27        1.0     0.004014      0.697582      0.294280     Biso  1.000000 C
   C28        1.0     0.697639      0.003987      0.004011     Biso  1.000000 C
   C29        1.0     0.003979      0.294292      0.004014     Biso  1.000000 C
   C30        1.0     0.697582      0.004014      0.294280     Biso  1.000000 C
   C31        1.0     0.294234      0.004010      0.697628     Biso  1.000000 C
   C32        1.0     0.003987      0.697639      0.004011     Biso  1.000000 C
   C33        1.0     0.003982      0.003982      0.294329     Biso  1.000000 C
   C34        1.0     0.294244      0.697589      0.004044     Biso  1.000000 C
   C35        1.0     0.697589      0.294244      0.004044     Biso  1.000000 C
   C36        1.0     0.003983      0.003983      0.697678     Biso  1.000000 C
   C37        1.0     0.006329      0.590977      0.396227     Biso  1.000000 C
   C38        1.0     0.591118      0.006232      0.006259     Biso  1.000000 C
   C39        1.0     0.396324      0.006232      0.006255     Biso  1.000000 C
   C40        1.0     0.006331      0.396182      0.591021     Biso  1.000000 C
   C41        1.0     0.396182      0.006331      0.591021     Biso  1.000000 C
   C42        1.0     0.006232      0.591118      0.006259     Biso  1.000000 C
   C43        1.0     0.006232      0.396324      0.006255     Biso  1.000000 C
   C44        1.0     0.590977      0.006329      0.396227     Biso  1.000000 C
   C45        1.0     0.590992      0.396200      0.006349     Biso  1.000000 C
   C46        1.0     0.006237      0.006237      0.591149     Biso  1.000000 C
   C47        1.0     0.006237      0.006237      0.396352     Biso  1.000000 C
   C48        1.0     0.396200      0.590992      0.006349     Biso  1.000000 C
   O1         1.0     0.082089      0.739515      0.255653     Biso  1.000000 O
   O2         1.0     0.739545      0.082096      0.922670     Biso  1.000000 O
   O3         1.0     0.255621      0.922633      0.082130     Biso  1.000000 O
   O4         1.0     0.922629      0.255599      0.739578     Biso  1.000000 O
   O5         1.0     0.255607      0.082092      0.739559     Biso  1.000000 O
   O6         1.0     0.922635      0.739542      0.082131     Biso  1.000000 O
   O7         1.0     0.082095      0.255621      0.922663     Biso  1.000000 O
   O8         1.0     0.739531      0.922628      0.255644     Biso  1.000000 O
   O9         1.0     0.739516      0.255613      0.082128     Biso  1.000000 O
   O10        1.0     0.082091      0.922632      0.739586     Biso  1.000000 O
   O11        1.0     0.922629      0.082092      0.255663     Biso  1.000000 O
   O12        1.0     0.255604      0.739535      0.922665     Biso  1.000000 O
   O13        1.0     0.739515      0.082089      0.255653     Biso  1.000000 O
   O14        1.0     0.082096      0.739545      0.922670     Biso  1.000000 O
   O15        1.0     0.922633      0.255621      0.082130     Biso  1.000000 O
   O16        1.0     0.255599      0.922629      0.739578     Biso  1.000000 O
   O17        1.0     0.082092      0.255607      0.739559     Biso  1.000000 O
   O18        1.0     0.739542      0.922635      0.082131     Biso  1.000000 O
   O19        1.0     0.255621      0.082095      0.922663     Biso  1.000000 O
   O20        1.0     0.922628      0.739531      0.255644     Biso  1.000000 O
   O21        1.0     0.255613      0.739516      0.082128     Biso  1.000000 O
   O22        1.0     0.922632      0.082091      0.739586     Biso  1.000000 O
   O23        1.0     0.082092      0.922629      0.255663     Biso  1.000000 O
   O24        1.0     0.739535      0.255604      0.922665     Biso  1.000000 O
   O25        1.0     0.195590      0.934762      0.934810     Biso  1.000000 O
   O26        1.0     0.934762      0.195590      0.934810     Biso  1.000000 O
   O27        1.0     0.934760      0.934760      0.195637     Biso  1.000000 O
   O28        1.0     0.934767      0.934767      0.934816     Biso  1.000000 O
   O29        1.0     0.852507      0.049127      0.049172     Biso  1.000000 O
   O30        1.0     0.049127      0.852507      0.049172     Biso  1.000000 O
   O31        1.0     0.049127      0.049127      0.852553     Biso  1.000000 O
   O32        1.0     0.049123      0.049123      0.049175     Biso  1.000000 O
   Ti1        1.0     0.115818      0.884110      0.115867     Biso  1.000000 Ti
   Ti2        1.0     0.884115      0.115820      0.884165     Biso  1.000000 Ti
   Ti3        1.0     0.115813      0.115813      0.884166     Biso  1.000000 Ti
   Ti4        1.0     0.884113      0.884113      0.115871     Biso  1.000000 Ti
   Ti5        1.0     0.884110      0.115818      0.115867     Biso  1.000000 Ti
   Ti6        1.0     0.115820      0.884115      0.884165     Biso  1.000000 Ti
