#======================================================================

# CRYSTAL DATA

#----------------------------------------------------------------------

data_VESTA_phase_1


_pd_phase_name                         'H C O Zr                              '
_cell_length_a                         18.97241
_cell_length_b                         18.97241
_cell_length_c                         18.97241
_cell_angle_alpha                      60.00000
_cell_angle_beta                       60.00000
_cell_angle_gamma                      60.00000
_symmetry_space_group_name_H-M         'P 1'
_symmetry_Int_Tables_number            1

loop_
_symmetry_equiv_pos_as_xyz
   'x, y, z'

loop_
   _atom_site_label
   _atom_site_occupancy
   _atom_site_fract_x
   _atom_site_fract_y
   _atom_site_fract_z
   _atom_site_adp_type
   _atom_site_B_iso_or_equiv
   _atom_site_type_symbol
   H1         1.0     0.292361      0.653700      0.135196     Biso  1.000000 H
   H2         1.0     0.653700      0.292361      0.918743     Biso  1.000000 H
   H3         1.0     0.135196      0.918743      0.292361     Biso  1.000000 H
   H4         1.0     0.918743      0.135196      0.653700     Biso  1.000000 H
   H5         1.0     0.135196      0.292361      0.653700     Biso  1.000000 H
   H6         1.0     0.918743      0.653700      0.292361     Biso  1.000000 H
   H7         1.0     0.292361      0.135196      0.918743     Biso  1.000000 H
   H8         1.0     0.653700      0.918743      0.135196     Biso  1.000000 H
   H9         1.0     0.653700      0.135196      0.292361     Biso  1.000000 H
   H10        1.0     0.292361      0.918743      0.653700     Biso  1.000000 H
   H11        1.0     0.918743      0.292361      0.135196     Biso  1.000000 H
   H12        1.0     0.135196      0.653700      0.918743     Biso  1.000000 H
   H13        1.0     0.420134      0.518243      0.139439     Biso  1.000000 H
   H14        1.0     0.518243      0.420134      0.922184     Biso  1.000000 H
   H15        1.0     0.139439      0.922184      0.420134     Biso  1.000000 H
   H16        1.0     0.922184      0.139439      0.518243     Biso  1.000000 H
   H17        1.0     0.139439      0.420134      0.518243     Biso  1.000000 H
   H18        1.0     0.922184      0.518243      0.420134     Biso  1.000000 H
   H19        1.0     0.420134      0.139439      0.922184     Biso  1.000000 H
   H20        1.0     0.518243      0.922184      0.139439     Biso  1.000000 H
   H21        1.0     0.518243      0.139439      0.420134     Biso  1.000000 H
   H22        1.0     0.420134      0.922184      0.518243     Biso  1.000000 H
   H23        1.0     0.922184      0.420134      0.139439     Biso  1.000000 H
   H24        1.0     0.139439      0.518243      0.922184     Biso  1.000000 H
   H25        1.0     0.875213      0.693436      0.095053     Biso  1.000000 H
   H26        1.0     0.693436      0.875213      0.336298     Biso  1.000000 H
   H27        1.0     0.095053      0.336298      0.875213     Biso  1.000000 H
   H28        1.0     0.336298      0.095053      0.693436     Biso  1.000000 H
   H29        1.0     0.095053      0.875213      0.693436     Biso  1.000000 H
   H30        1.0     0.336298      0.693436      0.875213     Biso  1.000000 H
   H31        1.0     0.875213      0.095053      0.336298     Biso  1.000000 H
   H32        1.0     0.693436      0.336298      0.095053     Biso  1.000000 H
   H33        1.0     0.693436      0.095053      0.875213     Biso  1.000000 H
   H34        1.0     0.875213      0.336298      0.693436     Biso  1.000000 H
   H35        1.0     0.336298      0.875213      0.095053     Biso  1.000000 H
   H36        1.0     0.095053      0.693436      0.336298     Biso  1.000000 H
   H37        1.0     0.875886      0.561638      0.094640     Biso  1.000000 H
   H38        1.0     0.561638      0.875886      0.467837     Biso  1.000000 H
   H39        1.0     0.094640      0.467837      0.875886     Biso  1.000000 H
   H40        1.0     0.467837      0.094640      0.561638     Biso  1.000000 H
   H41        1.0     0.094640      0.875886      0.561638     Biso  1.000000 H
   H42        1.0     0.467837      0.561638      0.875886     Biso  1.000000 H
   H43        1.0     0.875886      0.094640      0.467837     Biso  1.000000 H
   H44        1.0     0.561638      0.467837      0.094640     Biso  1.000000 H
   H45        1.0     0.561638      0.094640      0.875886     Biso  1.000000 H
   H46        1.0     0.875886      0.467837      0.561638     Biso  1.000000 H
   H47        1.0     0.467837      0.875886      0.094640     Biso  1.000000 H
   H48        1.0     0.094640      0.561638      0.467837     Biso  1.000000 H
   H49        1.0     0.927131      0.927131      0.218607     Biso  1.000000 H
   H50        1.0     0.927131      0.927131      0.927131     Biso  1.000000 H
   H51        1.0     0.218607      0.927131      0.927131     Biso  1.000000 H
   H52        1.0     0.927131      0.218607      0.927131     Biso  1.000000 H
   C1         1.0     0.331576      0.632135      0.078990     Biso  1.000000 C
   C2         1.0     0.632135      0.331576      0.957299     Biso  1.000000 C
   C3         1.0     0.078990      0.957299      0.331576     Biso  1.000000 C
   C4         1.0     0.957299      0.078990      0.632135     Biso  1.000000 C
   C5         1.0     0.078990      0.331576      0.632135     Biso  1.000000 C
   C6         1.0     0.957299      0.632135      0.331576     Biso  1.000000 C
   C7         1.0     0.331576      0.078990      0.957299     Biso  1.000000 C
   C8         1.0     0.632135      0.957299      0.078990     Biso  1.000000 C
   C9         1.0     0.632135      0.078990      0.331576     Biso  1.000000 C
   C10        1.0     0.331576      0.957299      0.632135     Biso  1.000000 C
   C11        1.0     0.957299      0.331576      0.078990     Biso  1.000000 C
   C12        1.0     0.078990      0.632135      0.957299     Biso  1.000000 C
   C13        1.0     0.403112      0.557547      0.080482     Biso  1.000000 C
   C14        1.0     0.557547      0.403112      0.958858     Biso  1.000000 C
   C15        1.0     0.080482      0.958858      0.403112     Biso  1.000000 C
   C16        1.0     0.958858      0.080482      0.557547     Biso  1.000000 C
   C17        1.0     0.080482      0.403112      0.557547     Biso  1.000000 C
   C18        1.0     0.958858      0.557547      0.403112     Biso  1.000000 C
   C19        1.0     0.403112      0.080482      0.958858     Biso  1.000000 C
   C20        1.0     0.557547      0.958858      0.080482     Biso  1.000000 C
   C21        1.0     0.557547      0.080482      0.403112     Biso  1.000000 C
   C22        1.0     0.403112      0.958858      0.557547     Biso  1.000000 C
   C23        1.0     0.958858      0.403112      0.080482     Biso  1.000000 C
   C24        1.0     0.080482      0.557547      0.958858     Biso  1.000000 C
   C25        1.0     0.231856      0.761442      0.002647     Biso  1.000000 C
   C26        1.0     0.761442      0.231856      0.004055     Biso  1.000000 C
   C27        1.0     0.002647      0.004055      0.231856     Biso  1.000000 C
   C28        1.0     0.004055      0.002647      0.761442     Biso  1.000000 C
   C29        1.0     0.002647      0.231856      0.761442     Biso  1.000000 C
   C30        1.0     0.004055      0.761442      0.231856     Biso  1.000000 C
   C31        1.0     0.231856      0.002647      0.004055     Biso  1.000000 C
   C32        1.0     0.761442      0.004055      0.002647     Biso  1.000000 C
   C33        1.0     0.761442      0.002647      0.231856     Biso  1.000000 C
   C34        1.0     0.231856      0.004055      0.761442     Biso  1.000000 C
   C35        1.0     0.004055      0.231856      0.002647     Biso  1.000000 C
   C36        1.0     0.002647      0.761442      0.004055     Biso  1.000000 C
   C37        1.0     0.307564      0.680925      0.004963     Biso  1.000000 C
   C38        1.0     0.680925      0.307564      0.006548     Biso  1.000000 C
   C39        1.0     0.004963      0.006548      0.307564     Biso  1.000000 C
   C40        1.0     0.006548      0.004963      0.680925     Biso  1.000000 C
   C41        1.0     0.004963      0.307564      0.680925     Biso  1.000000 C
   C42        1.0     0.006548      0.680925      0.307564     Biso  1.000000 C
   C43        1.0     0.307564      0.004963      0.006548     Biso  1.000000 C
   C44        1.0     0.680925      0.006548      0.004963     Biso  1.000000 C
   C45        1.0     0.680925      0.004963      0.307564     Biso  1.000000 C
   C46        1.0     0.307564      0.006548      0.680925     Biso  1.000000 C
   C47        1.0     0.006548      0.307564      0.004963     Biso  1.000000 C
   C48        1.0     0.004963      0.680925      0.006548     Biso  1.000000 C
   C49        1.0     0.453257      0.530741      0.007728     Biso  1.000000 C
   C50        1.0     0.530741      0.453257      0.008274     Biso  1.000000 C
   C51        1.0     0.007728      0.008274      0.453257     Biso  1.000000 C
   C52        1.0     0.008274      0.007728      0.530741     Biso  1.000000 C
   C53        1.0     0.007728      0.453257      0.530741     Biso  1.000000 C
   C54        1.0     0.008274      0.530741      0.453257     Biso  1.000000 C
   C55        1.0     0.453257      0.007728      0.008274     Biso  1.000000 C
   C56        1.0     0.530741      0.008274      0.007728     Biso  1.000000 C
   C57        1.0     0.530741      0.007728      0.453257     Biso  1.000000 C
   C58        1.0     0.453257      0.008274      0.530741     Biso  1.000000 C
   C59        1.0     0.008274      0.453257      0.007728     Biso  1.000000 C
   C60        1.0     0.007728      0.530741      0.008274     Biso  1.000000 C
   C61        1.0     0.932611      0.654176      0.057280     Biso  1.000000 C
   C62        1.0     0.654176      0.932611      0.355934     Biso  1.000000 C
   C63        1.0     0.057280      0.355934      0.932611     Biso  1.000000 C
   C64        1.0     0.355934      0.057280      0.654176     Biso  1.000000 C
   C65        1.0     0.057280      0.932611      0.654176     Biso  1.000000 C
   C66        1.0     0.355934      0.654176      0.932611     Biso  1.000000 C
   C67        1.0     0.932611      0.057280      0.355934     Biso  1.000000 C
   C68        1.0     0.654176      0.355934      0.057280     Biso  1.000000 C
   C69        1.0     0.654176      0.057280      0.932611     Biso  1.000000 C
   C70        1.0     0.932611      0.355934      0.654176     Biso  1.000000 C
   C71        1.0     0.355934      0.932611      0.057280     Biso  1.000000 C
   C72        1.0     0.057280      0.654176      0.355934     Biso  1.000000 C
   C73        1.0     0.933844      0.580390      0.057456     Biso  1.000000 C
   C74        1.0     0.580390      0.933844      0.428310     Biso  1.000000 C
   C75        1.0     0.057456      0.428310      0.933844     Biso  1.000000 C
   C76        1.0     0.428310      0.057456      0.580390     Biso  1.000000 C
   C77        1.0     0.057456      0.933844      0.580390     Biso  1.000000 C
   C78        1.0     0.428310      0.580390      0.933844     Biso  1.000000 C
   C79        1.0     0.933844      0.057456      0.428310     Biso  1.000000 C
   C80        1.0     0.580390      0.428310      0.057456     Biso  1.000000 C
   C81        1.0     0.580390      0.057456      0.933844     Biso  1.000000 C
   C82        1.0     0.933844      0.428310      0.580390     Biso  1.000000 C
   C83        1.0     0.428310      0.933844      0.057456     Biso  1.000000 C
   C84        1.0     0.057456      0.580390      0.428310     Biso  1.000000 C
   O1         1.0     0.201196      0.791964      0.062517     Biso  1.000000 O
   O2         1.0     0.791964      0.201196      0.944323     Biso  1.000000 O
   O3         1.0     0.062517      0.944323      0.201196     Biso  1.000000 O
   O4         1.0     0.944323      0.062517      0.791964     Biso  1.000000 O
   O5         1.0     0.062517      0.201196      0.791964     Biso  1.000000 O
   O6         1.0     0.944323      0.791964      0.201196     Biso  1.000000 O
   O7         1.0     0.201196      0.062517      0.944323     Biso  1.000000 O
   O8         1.0     0.791964      0.944323      0.062517     Biso  1.000000 O
   O9         1.0     0.791964      0.062517      0.201196     Biso  1.000000 O
   O10        1.0     0.201196      0.944323      0.791964     Biso  1.000000 O
   O11        1.0     0.944323      0.201196      0.062517     Biso  1.000000 O
   O12        1.0     0.062517      0.791964      0.944323     Biso  1.000000 O
   O13        1.0     0.940068      0.794640      0.061150     Biso  1.000000 O
   O14        1.0     0.794640      0.940068      0.204142     Biso  1.000000 O
   O15        1.0     0.061150      0.204142      0.940068     Biso  1.000000 O
   O16        1.0     0.204142      0.061150      0.794640     Biso  1.000000 O
   O17        1.0     0.061150      0.940068      0.794640     Biso  1.000000 O
   O18        1.0     0.204142      0.794640      0.940068     Biso  1.000000 O
   O19        1.0     0.940068      0.061150      0.204142     Biso  1.000000 O
   O20        1.0     0.794640      0.204142      0.061150     Biso  1.000000 O
   O21        1.0     0.794640      0.061150      0.940068     Biso  1.000000 O
   O22        1.0     0.940068      0.204142      0.794640     Biso  1.000000 O
   O23        1.0     0.204142      0.940068      0.061150     Biso  1.000000 O
   O24        1.0     0.061150      0.794640      0.204142     Biso  1.000000 O
   O25        1.0     0.155772      0.948076      0.948076     Biso  1.000000 O
   O26        1.0     0.948076      0.155772      0.948076     Biso  1.000000 O
   O27        1.0     0.948076      0.948076      0.155772     Biso  1.000000 O
   O28        1.0     0.948076      0.948076      0.948076     Biso  1.000000 O
   O29        1.0     0.883144      0.038952      0.038952     Biso  1.000000 O
   O30        1.0     0.038952      0.883144      0.038952     Biso  1.000000 O
   O31        1.0     0.038952      0.038952      0.883144     Biso  1.000000 O
   O32        1.0     0.038952      0.038952      0.038952     Biso  1.000000 O
   Zr1        1.0     0.092933      0.092933      0.907067     Biso  1.000000 Zr
   Zr2        1.0     0.907067      0.907067      0.092933     Biso  1.000000 Zr
   Zr3        1.0     0.907067      0.092933      0.092933     Biso  1.000000 Zr
   Zr4        1.0     0.092933      0.907067      0.907067     Biso  1.000000 Zr
   Zr5        1.0     0.092933      0.907067      0.092933     Biso  1.000000 Zr
   Zr6        1.0     0.907067      0.092933      0.907067     Biso  1.000000 Zr
