#======================================================================

# CRYSTAL DATA

#----------------------------------------------------------------------

data_VESTA_phase_1


_pd_phase_name                         'H C O Zr                              '
_cell_length_a                         14.67988
_cell_length_b                         14.67988
_cell_length_c                         14.67976
_cell_angle_alpha                      59.99668
_cell_angle_beta                       59.99668
_cell_angle_gamma                      59.99683
_symmetry_space_group_name_H-M         'P 1'
_symmetry_Int_Tables_number            1

loop_
_symmetry_equiv_pos_as_xyz
   'x, y, z'

loop_
   _atom_site_label
   _atom_site_occupancy
   _atom_site_fract_x
   _atom_site_fract_y
   _atom_site_fract_z
   _atom_site_adp_type
   _atom_site_B_iso_or_equiv
   _atom_site_type_symbol
   H1         1.0     0.152640      0.579620      0.407119     Biso  1.000000 H
   H2         1.0     0.579770      0.152578      0.860331     Biso  1.000000 H
   H3         1.0     0.407242      0.860316      0.152601     Biso  1.000000 H
   H4         1.0     0.860397      0.407075      0.579655     Biso  1.000000 H
   H5         1.0     0.407076      0.152641      0.579663     Biso  1.000000 H
   H6         1.0     0.860305      0.579771      0.152605     Biso  1.000000 H
   H7         1.0     0.152574      0.407243      0.860342     Biso  1.000000 H
   H8         1.0     0.579612      0.860397      0.407117     Biso  1.000000 H
   H9         1.0     0.579639      0.407097      0.152656     Biso  1.000000 H
   H10        1.0     0.152589      0.860316      0.579793     Biso  1.000000 H
   H11        1.0     0.860329      0.152584      0.407264     Biso  1.000000 H
   H12        1.0     0.407096      0.579632      0.860409     Biso  1.000000 H
   H13        1.0     0.579620      0.152640      0.407119     Biso  1.000000 H
   H14        1.0     0.152578      0.579770      0.860331     Biso  1.000000 H
   H15        1.0     0.860316      0.407242      0.152601     Biso  1.000000 H
   H16        1.0     0.407075      0.860397      0.579655     Biso  1.000000 H
   H17        1.0     0.152641      0.407076      0.579663     Biso  1.000000 H
   H18        1.0     0.579771      0.860305      0.152605     Biso  1.000000 H
   H19        1.0     0.407243      0.152574      0.860342     Biso  1.000000 H
   H20        1.0     0.860397      0.579612      0.407117     Biso  1.000000 H
   H21        1.0     0.407097      0.579639      0.152656     Biso  1.000000 H
   H22        1.0     0.860316      0.152589      0.579793     Biso  1.000000 H
   H23        1.0     0.152584      0.860329      0.407264     Biso  1.000000 H
   H24        1.0     0.579632      0.407096      0.860409     Biso  1.000000 H
   H25        1.0     0.905775      0.905775      0.282696     Biso  1.000000 H
   H26        1.0     0.905757      0.905757      0.905799     Biso  1.000000 H
   H27        1.0     0.282667      0.905771      0.905810     Biso  1.000000 H
   H28        1.0     0.905771      0.282667      0.905810     Biso  1.000000 H
   C1         1.0     0.089317      0.540476      0.446025     Biso  1.000000 C
   C2         1.0     0.540660      0.089223      0.923885     Biso  1.000000 C
   C3         1.0     0.446167      0.923861      0.089252     Biso  1.000000 C
   C4         1.0     0.923965      0.445973      0.540519     Biso  1.000000 C
   C5         1.0     0.445982      0.089318      0.540518     Biso  1.000000 C
   C6         1.0     0.923859      0.540659      0.089251     Biso  1.000000 C
   C7         1.0     0.089225      0.446168      0.923887     Biso  1.000000 C
   C8         1.0     0.540474      0.923964      0.446018     Biso  1.000000 C
   C9         1.0     0.540495      0.446002      0.089332     Biso  1.000000 C
   C10        1.0     0.089233      0.923868      0.540686     Biso  1.000000 C
   C11        1.0     0.923870      0.089234      0.446193     Biso  1.000000 C
   C12        1.0     0.445994      0.540495      0.923978     Biso  1.000000 C
   C13        1.0     0.540476      0.089317      0.446025     Biso  1.000000 C
   C14        1.0     0.089223      0.540660      0.923885     Biso  1.000000 C
   C15        1.0     0.923861      0.446167      0.089252     Biso  1.000000 C
   C16        1.0     0.445973      0.923965      0.540519     Biso  1.000000 C
   C17        1.0     0.089318      0.445982      0.540518     Biso  1.000000 C
   C18        1.0     0.540659      0.923859      0.089251     Biso  1.000000 C
   C19        1.0     0.446168      0.089225      0.923887     Biso  1.000000 C
   C20        1.0     0.923964      0.540474      0.446018     Biso  1.000000 C
   C21        1.0     0.446002      0.540495      0.089332     Biso  1.000000 C
   C22        1.0     0.923868      0.089233      0.540686     Biso  1.000000 C
   C23        1.0     0.089234      0.923870      0.446193     Biso  1.000000 C
   C24        1.0     0.540495      0.445994      0.923978     Biso  1.000000 C
   C25        1.0     0.299960      0.004057      0.004085     Biso  1.000000 C
   C26        1.0     0.004069      0.299902      0.691844     Biso  1.000000 C
   C27        1.0     0.004060      0.691805      0.299951     Biso  1.000000 C
   C28        1.0     0.691844      0.004061      0.004094     Biso  1.000000 C
   C29        1.0     0.004057      0.299960      0.004085     Biso  1.000000 C
   C30        1.0     0.691805      0.004060      0.299951     Biso  1.000000 C
   C31        1.0     0.299902      0.004069      0.691844     Biso  1.000000 C
   C32        1.0     0.004061      0.691844      0.004094     Biso  1.000000 C
   C33        1.0     0.004049      0.004049      0.300003     Biso  1.000000 C
   C34        1.0     0.299909      0.691807      0.004099     Biso  1.000000 C
   C35        1.0     0.691807      0.299909      0.004099     Biso  1.000000 C
   C36        1.0     0.004055      0.004055      0.691888     Biso  1.000000 C
   C37        1.0     0.006238      0.588310      0.399004     Biso  1.000000 C
   C38        1.0     0.588464      0.006166      0.006192     Biso  1.000000 C
   C39        1.0     0.399121      0.006167      0.006194     Biso  1.000000 C
   C40        1.0     0.006242      0.398957      0.588352     Biso  1.000000 C
   C41        1.0     0.398957      0.006242      0.588352     Biso  1.000000 C
   C42        1.0     0.006166      0.588464      0.006192     Biso  1.000000 C
   C43        1.0     0.006167      0.399121      0.006194     Biso  1.000000 C
   C44        1.0     0.588310      0.006238      0.399004     Biso  1.000000 C
   C45        1.0     0.588326      0.398976      0.006257     Biso  1.000000 C
   C46        1.0     0.006168      0.006168      0.588496     Biso  1.000000 C
   C47        1.0     0.006170      0.006170      0.399152     Biso  1.000000 C
   C48        1.0     0.398976      0.588326      0.006257     Biso  1.000000 C
   O1         1.0     0.079884      0.732761      0.261943     Biso  1.000000 O
   O2         1.0     0.732773      0.079925      0.925384     Biso  1.000000 O
   O3         1.0     0.261880      0.925345      0.079958     Biso  1.000000 O
   O4         1.0     0.925327      0.261851      0.732833     Biso  1.000000 O
   O5         1.0     0.261897      0.079890      0.732803     Biso  1.000000 O
   O6         1.0     0.925354      0.732762      0.079970     Biso  1.000000 O
   O7         1.0     0.079918      0.261887      0.925368     Biso  1.000000 O
   O8         1.0     0.732797      0.925313      0.261906     Biso  1.000000 O
   O9         1.0     0.732751      0.261894      0.079935     Biso  1.000000 O
   O10        1.0     0.079920      0.925343      0.732815     Biso  1.000000 O
   O11        1.0     0.925330      0.079912      0.261932     Biso  1.000000 O
   O12        1.0     0.261859      0.732798      0.925356     Biso  1.000000 O
   O13        1.0     0.732761      0.079884      0.261943     Biso  1.000000 O
   O14        1.0     0.079925      0.732773      0.925384     Biso  1.000000 O
   O15        1.0     0.925345      0.261880      0.079958     Biso  1.000000 O
   O16        1.0     0.261851      0.925327      0.732833     Biso  1.000000 O
   O17        1.0     0.079890      0.261897      0.732803     Biso  1.000000 O
   O18        1.0     0.732762      0.925354      0.079970     Biso  1.000000 O
   O19        1.0     0.261887      0.079918      0.925368     Biso  1.000000 O
   O20        1.0     0.925313      0.732797      0.261906     Biso  1.000000 O
   O21        1.0     0.261894      0.732751      0.079935     Biso  1.000000 O
   O22        1.0     0.925343      0.079920      0.732815     Biso  1.000000 O
   O23        1.0     0.079912      0.925330      0.261932     Biso  1.000000 O
   O24        1.0     0.732798      0.261859      0.925356     Biso  1.000000 O
   O25        1.0     0.201450      0.932826      0.932878     Biso  1.000000 O
   O26        1.0     0.932826      0.201450      0.932878     Biso  1.000000 O
   O27        1.0     0.932834      0.932834      0.201480     Biso  1.000000 O
   O28        1.0     0.932823      0.932823      0.932877     Biso  1.000000 O
   O29        1.0     0.848991      0.050317      0.050362     Biso  1.000000 O
   O30        1.0     0.050317      0.848991      0.050362     Biso  1.000000 O
   O31        1.0     0.050313      0.050313      0.849046     Biso  1.000000 O
   O32        1.0     0.050324      0.050324      0.050366     Biso  1.000000 O
   Zr1        1.0     0.120075      0.879885      0.120116     Biso  1.000000 Zr
   Zr2        1.0     0.879891      0.120064      0.879938     Biso  1.000000 Zr
   Zr3        1.0     0.120072      0.120072      0.879931     Biso  1.000000 Zr
   Zr4        1.0     0.879890      0.879890      0.120112     Biso  1.000000 Zr
   Zr5        1.0     0.879885      0.120075      0.120116     Biso  1.000000 Zr
   Zr6        1.0     0.120064      0.879891      0.879938     Biso  1.000000 Zr
