#======================================================================

# CRYSTAL DATA

#----------------------------------------------------------------------

data_VESTA_phase_1


_pd_phase_name                         'SCF Done            -313.28482982     '
_cell_length_a                         18.44179
_cell_length_b                         18.50760
_cell_length_c                         18.44170
_cell_angle_alpha                      59.88253
_cell_angle_beta                       60.23592
_cell_angle_gamma                      59.88173
_symmetry_space_group_name_H-M         'P 1'
_symmetry_Int_Tables_number            1

loop_
_symmetry_equiv_pos_as_xyz
   'x, y, z'

loop_
   _atom_site_label
   _atom_site_occupancy
   _atom_site_fract_x
   _atom_site_fract_y
   _atom_site_fract_z
   _atom_site_adp_type
   _atom_site_B_iso_or_equiv
   _atom_site_type_symbol
   Zn1        1.0     0.998302      0.265637      0.132577     Biso  1.000000 Zn
   Zn2        1.0     0.630184      0.634147      0.622097     Biso  1.000000 Zn
   Zn3        1.0     0.488368      0.633796      0.764087     Biso  1.000000 Zn
   Zn4        1.0     0.998811      0.123722      0.132353     Biso  1.000000 Zn
   Zn5        1.0     0.069887      0.652779      0.715576     Biso  1.000000 Zn
   Zn6        1.0     0.588930      0.704961      0.152357     Biso  1.000000 Zn
   Zn7        1.0     0.069764      0.654105      0.572629     Biso  1.000000 Zn
   Zn8        1.0     0.018672      0.074020      0.722548     Biso  1.000000 Zn
   Zn9        1.0     0.438730      0.223952      0.203545     Biso  1.000000 Zn
   Zn10       1.0     0.017398      0.217266      0.580597     Biso  1.000000 Zn
   Zn11       1.0     0.581809      0.082109      0.203687     Biso  1.000000 Zn
   Zn12       1.0     0.446928      0.705113      0.151147     Biso  1.000000 Zn
   C1         1.0     0.030482      0.238189      0.967498     Biso  1.000000 C
   C2         1.0     0.648862      0.665814      0.736655     Biso  1.000000 C
   C3         1.0     0.602727      0.469052      0.782695     Biso  1.000000 C
   C4         1.0     0.833528      0.284230      0.164381     Biso  1.000000 C
   C5         1.0     0.907304      0.679191      0.743925     Biso  1.000000 C
   C6         1.0     0.554335      0.542457      0.177979     Biso  1.000000 C
   C7         1.0     0.082802      0.493599      0.688885     Biso  1.000000 C
   C8         1.0     0.043926      0.245579      0.688408     Biso  1.000000 C
   C9         1.0     0.555116      0.254992      0.216596     Biso  1.000000 C
   C10        1.0     0.858185      0.190584      0.753529     Biso  1.000000 C
   C11        1.0     0.610155      0.189761      0.041029     Biso  1.000000 C
   C12        1.0     0.619780      0.717973      0.991984     Biso  1.000000 C
   C13        1.0     0.482608      0.669287      0.316795     Biso  1.000000 C
   C14        1.0     0.998288      0.101770      0.553437     Biso  1.000000 C
   C15        1.0     0.183099      0.051827      0.616610     Biso  1.000000 C
   C16        1.0     0.419858      0.866830      0.131804     Biso  1.000000 C
   C17        1.0     0.033587      0.818528      0.550257     Biso  1.000000 C
   C18        1.0     0.159938      0.149057      0.116323     Biso  1.000000 C
   C19        1.0     0.231715      0.633305      0.600043     Biso  1.000000 C
   C20        1.0     0.513652      0.617664      0.593647     Biso  1.000000 C
   C21        1.0     0.416496      0.117977      0.167409     Biso  1.000000 C
   C22        1.0     0.459767      0.795426      0.647457     Biso  1.000000 C
   C23        1.0     0.466331      0.055075      0.365458     Biso  1.000000 C
   C24        1.0     0.982245      0.095081      0.293927     Biso  1.000000 C
   C25        1.0     0.047933      0.280570      0.870023     Biso  1.000000 C
   C26        1.0     0.686514      0.683294      0.779025     Biso  1.000000 C
   C27        1.0     0.645078      0.371558      0.820428     Biso  1.000000 C
   C28        1.0     0.735978      0.321902      0.181844     Biso  1.000000 C
   C29        1.0     0.811959      0.688760      0.784314     Biso  1.000000 C
   C30        1.0     0.599702      0.447170      0.187565     Biso  1.000000 C
   C31        1.0     0.072728      0.404695      0.735234     Biso  1.000000 C
   C32        1.0     0.053490      0.285996      0.733806     Biso  1.000000 C
   C33        1.0     0.601426      0.307650      0.206490     Biso  1.000000 C
   C34        1.0     0.769387      0.236930      0.806181     Biso  1.000000 C
   C35        1.0     0.650487      0.235234      0.945707     Biso  1.000000 C
   C36        1.0     0.672500      0.707923      0.903094     Biso  1.000000 C
   C37        1.0     0.447171      0.648145      0.414451     Biso  1.000000 C
   C38        1.0     0.996421      0.054310      0.509203     Biso  1.000000 C
   C39        1.0     0.280744      0.010638      0.580981     Biso  1.000000 C
   C40        1.0     0.375627      0.960536      0.129875     Biso  1.000000 C
   C41        1.0     0.012807      0.916077      0.509202     Biso  1.000000 C
   C42        1.0     0.251070      0.097718      0.121541     Biso  1.000000 C
   C43        1.0     0.325305      0.631440      0.552662     Biso  1.000000 C
   C44        1.0     0.462461      0.623036      0.548404     Biso  1.000000 C
   C45        1.0     0.375414      0.082392      0.146350     Biso  1.000000 C
   C46        1.0     0.414565      0.886456      0.596167     Biso  1.000000 C
   C47        1.0     0.418873      0.010798      0.459003     Biso  1.000000 C
   C48        1.0     0.987721      0.049929      0.385013     Biso  1.000000 C
   C49        1.0     0.044914      0.241938      0.823787     Biso  1.000000 C
   C50        1.0     0.635062      0.697802      0.860233     Biso  1.000000 C
   C51        1.0     0.726423      0.327229      0.768895     Biso  1.000000 C
   C52        1.0     0.689841      0.409747      0.178817     Biso  1.000000 C
   C53        1.0     0.774436      0.680301      0.740341     Biso  1.000000 C
   C54        1.0     0.555414      0.396528      0.201091     Biso  1.000000 C
   C55        1.0     0.062498      0.361805      0.825726     Biso  1.000000 C
   C56        1.0     0.067081      0.367438      0.689385     Biso  1.000000 C
   C57        1.0     0.691703      0.270349      0.196345     Biso  1.000000 C
   C58        1.0     0.732011      0.190917      0.895054     Biso  1.000000 C
   C59        1.0     0.606545      0.325290      0.908282     Biso  1.000000 C
   C60        1.0     0.761285      0.702353      0.865773     Biso  1.000000 C
   C61        1.0     0.498340      0.636393      0.457789     Biso  1.000000 C
   C62        1.0     0.986156      0.097562      0.425754     Biso  1.000000 C
   C63        1.0     0.324018      0.927865      0.632087     Biso  1.000000 C
   C64        1.0     0.292011      0.010960      0.119794     Biso  1.000000 C
   C65        1.0     0.009248      0.963484      0.551234     Biso  1.000000 C
   C66        1.0     0.292529      0.133460      0.134925     Biso  1.000000 C
   C67        1.0     0.361359      0.644295      0.461888     Biso  1.000000 C
   C68        1.0     0.375591      0.621504      0.595975     Biso  1.000000 C
   C69        1.0     0.417583      0.996500      0.142653     Biso  1.000000 C
   C70        1.0     0.462152      0.927270      0.509304     Biso  1.000000 C
   C71        1.0     0.328037      0.052809      0.495066     Biso  1.000000 C
   C72        1.0     0.001058      0.959377      0.426450     Biso  1.000000 C
   O1         1.0     0.023213      0.282700      0.006770     Biso  1.000000 O
   O2         1.0     0.695846      0.657319      0.659937     Biso  1.000000 O
   O3         1.0     0.525931      0.507131      0.829823     Biso  1.000000 O
   O4         1.0     0.872866      0.207797      0.156903     Biso  1.000000 O
   O5         1.0     0.945802      0.674481      0.788962     Biso  1.000000 O
   O6         1.0     0.598387      0.580812      0.172990     Biso  1.000000 O
   O7         1.0     0.083741      0.532433      0.607945     Biso  1.000000 O
   O8         1.0     0.039220      0.168054      0.732300     Biso  1.000000 O
   O9         1.0     0.474149      0.296198      0.217402     Biso  1.000000 O
   O10        1.0     0.891140      0.233494      0.673111     Biso  1.000000 O
   O11        1.0     0.655081      0.111039      0.079730     Biso  1.000000 O
   O12        1.0     0.539340      0.722378      0.024957     Biso  1.000000 O
   O13        1.0     0.434353      0.680192      0.279246     Biso  1.000000 O
   O14        1.0     0.000116      0.058802      0.632382     Biso  1.000000 O
   O15        1.0     0.145593      0.126885      0.568305     Biso  1.000000 O
   O16        1.0     0.498833      0.829181      0.133455     Biso  1.000000 O
   O17        1.0     0.040986      0.778446      0.505382     Biso  1.000000 O
   O18        1.0     0.123655      0.109668      0.111147     Biso  1.000000 O
   O19        1.0     0.194254      0.634848      0.679685     Biso  1.000000 O
   O20        1.0     0.592503      0.621226      0.548543     Biso  1.000000 O
   O21        1.0     0.371540      0.195528      0.174926     Biso  1.000000 O
   O22        1.0     0.414565      0.758167      0.726206     Biso  1.000000 O
   O23        1.0     0.545949      0.011507      0.327848     Biso  1.000000 O
   O24        1.0     0.976991      0.175960      0.257659     Biso  1.000000 O
   O25        1.0     0.985859      0.049871      0.256682     Biso  1.000000 O
   O26        1.0     0.474047      0.612852      0.674325     Biso  1.000000 O
   O27        1.0     0.540610      0.759121      0.608036     Biso  1.000000 O
   O28        1.0     0.122601      0.227749      0.120068     Biso  1.000000 O
   O29        1.0     0.193945      0.635216      0.557026     Biso  1.000000 O
   O30        1.0     0.376131      0.829283      0.133482     Biso  1.000000 O
   O31        1.0     0.044573      0.780855      0.625186     Biso  1.000000 O
   O32        1.0     0.999628      0.181449      0.509852     Biso  1.000000 O
   O33        1.0     0.491439      0.069678      0.178385     Biso  1.000000 O
   O34        1.0     0.142920      0.006880      0.694165     Biso  1.000000 O
   O35        1.0     0.423337      0.134038      0.327764     Biso  1.000000 O
   O36        1.0     0.560193      0.676641      0.276676     Biso  1.000000 O
   O37        1.0     0.661048      0.718943      0.030709     Biso  1.000000 O
   O38        1.0     0.039158      0.290514      0.609617     Biso  1.000000 O
   O39        1.0     0.897086      0.109558      0.794803     Biso  1.000000 O
   O40        1.0     0.475552      0.581067      0.173348     Biso  1.000000 O
   O41        1.0     0.087246      0.526502      0.732001     Biso  1.000000 O
   O42        1.0     0.871599      0.331285      0.156144     Biso  1.000000 O
   O43        1.0     0.945751      0.674470      0.666485     Biso  1.000000 O
   O44        1.0     0.572245      0.658726      0.781147     Biso  1.000000 O
   O45        1.0     0.598164      0.174541      0.221167     Biso  1.000000 O
   O46        1.0     0.647385      0.508268      0.706200     Biso  1.000000 O
   O47        1.0     0.532668      0.233462      0.079479     Biso  1.000000 O
   O48        1.0     0.022078      0.161438      0.005563     Biso  1.000000 O
   H1         1.0     0.033780      0.178195      0.858538     Biso  1.000000 H
   H2         1.0     0.566210      0.699540      0.891016     Biso  1.000000 H
   H3         1.0     0.757147      0.363545      0.700084     Biso  1.000000 H
   H4         1.0     0.724465      0.450004      0.167769     Biso  1.000000 H
   H5         1.0     0.814546      0.669071      0.676655     Biso  1.000000 H
   H6         1.0     0.485293      0.426230      0.206284     Biso  1.000000 H
   H7         1.0     0.064403      0.392548      0.862062     Biso  1.000000 H
   H8         1.0     0.072277      0.402600      0.619372     Biso  1.000000 H
   H9         1.0     0.728287      0.201542      0.198096     Biso  1.000000 H
   H10        1.0     0.767165      0.120704      0.924818     Biso  1.000000 H
   H11        1.0     0.542812      0.359961      0.948453     Biso  1.000000 H
   H12        1.0     0.790876      0.707580      0.901084     Biso  1.000000 H
   H13        1.0     0.565569      0.639591      0.420481     Biso  1.000000 H
   H14        1.0     0.978112      0.168096      0.391806     Biso  1.000000 H
   H15        1.0     0.286821      0.894919      0.699241     Biso  1.000000 H
   H16        1.0     0.257916      0.982219      0.112023     Biso  1.000000 H
   H17        1.0     0.018331      0.929175      0.616345     Biso  1.000000 H
   H18        1.0     0.259436      0.200730      0.138127     Biso  1.000000 H
   H19        1.0     0.321424      0.653298      0.427734     Biso  1.000000 H
   H20        1.0     0.346950      0.613356      0.666626     Biso  1.000000 H
   H21        1.0     0.482527      0.956672      0.151640     Biso  1.000000 H
   H22        1.0     0.532828      0.893350      0.480650     Biso  1.000000 H
   H23        1.0     0.293987      0.117928      0.455070     Biso  1.000000 H
   H24        1.0     0.004192      0.921842      0.393658     Biso  1.000000 H
